<nodes>
<node id="1" x="10" y="100" />
<node id="2" x="310" y="100" />
<node id="3" x="610" y="100" />
<node id="4" x="910" y="100" />
<node id="5" x="1210" y="100" />
<node id="6" x="1510" y="100" />
<node id="7" x="1810" y="100" />
<node id="8" x="2110" y="100" />
<node id="9" x="2410" y="100" />
<node id="10" x="2710" y="100" />
<node id="11" x="3010" y="100" />
<node id="12" x="3310" y="100" />
<node id="13" x="3610" y="100" />
<node id="14" x="3910" y="100" />
<node id="15" x="4210" y="100" />
<node id="16" x="4510" y="100" />
<node id="17" x="4810" y="100" />
<node id="18" x="310" y="150" />
<node id="19" x="610" y="150" />
<node id="20" x="910" y="150" />
<node id="21" x="1210" y="150" />
<node id="22" x="1510" y="150" />
<node id="23" x="1810" y="150" />
<node id="24" x="2110" y="150" />
<node id="25" x="2410" y="150" />
<node id="26" x="2710" y="150" />
<node id="27" x="3010" y="150" />
<node id="28" x="3310" y="150" />
<node id="29" x="3610" y="150" />
<node id="30" x="3910" y="150" />
<node id="31" x="4210" y="150" />
<node id="32" x="4510" y="150" />
</nodes>
