<routes>
   <vType id="bus" vClass="bus"/>
     <vehicle id="0" type="bus" depart="0.00">
        <route edges="E17"/>
		<stop lane="E17_0" endPos="48" duration="3000"/>
    </vehicle>
    <vehicle id="1" type="bus" depart="0.00">
        <route edges="E18"/>
		<stop lane="E18_0" endPos="48" duration="3000"/>
    </vehicle>
    <vehicle id="2" type="bus" depart="0.00">
        <route edges="E19"/>
		<stop lane="E19_0" endPos="48" duration="3000"/>
    </vehicle>
    <vehicle id="3" type="bus" depart="0.00">
        <route edges="E20"/>
		<stop lane="E20_0" endPos="48" duration="3000"/>
    </vehicle>
     <vehicle id="4" type="bus" depart="0.00">
        <route edges="E21"/>
		<stop lane="E21_0" endPos="48" duration="3000"/>
    </vehicle>
    <vehicle id="5" type="bus" depart="0.00">
        <route edges="E22"/>
		<stop lane="E22_0" endPos="48" duration="3000"/>
    </vehicle>
    <vehicle id="6" type="bus" depart="0.00">
        <route edges="E23"/>
		<stop lane="E23_0" endPos="48" duration="3000"/>
    </vehicle>
    <vehicle id="7" type="bus" depart="0.00">
        <route edges="E24"/>
		<stop lane="E24_0" endPos="48" duration="3000"/>
    </vehicle>
     <vehicle id="8" type="bus" depart="0.00">
        <route edges="E25"/>
		<stop lane="E25_0" endPos="48" duration="3000"/>
    </vehicle>
    <vehicle id="9" type="bus" depart="0.00">
        <route edges="E26"/>
		<stop lane="E26_0" endPos="48" duration="3000"/>
    </vehicle>
    <vehicle id="10" type="bus" depart="0.00">
        <route edges="E27"/>
		<stop lane="E27_0" endPos="48" duration="3000"/>
    </vehicle>
    <vehicle id="11" type="bus" depart="0.00">
        <route edges="E28"/>
		<stop lane="E28_0" endPos="48" duration="3000"/>
    </vehicle>
     <vehicle id="12" type="bus" depart="0.00">
        <route edges="E29"/>
		<stop lane="E29_0" endPos="48" duration="3000"/>
    </vehicle>
    <vehicle id="13" type="bus" depart="0.00">
        <route edges="E30"/>
		<stop lane="E30_0" endPos="48" duration="3000"/>
    </vehicle>
    <vehicle id="14" type="bus" depart="0.00">
        <route edges="E31"/>
		<stop lane="E31_0" endPos="48" duration="3000"/>
    </vehicle>
<vehicle id="15" type="bus" depart="1.00">
<route edges= "E1 E2 E3 E4 E5 E6 E7 E8 E9 E10 E11 E12 E13 E14 E15 E16"/> 
</vehicle> 
</routes>
