<nodes>
<node id="1" x="10" y="100" />
<node id="2" x="310" y="100" />
<node id="3" x="760" y="100" />
<node id="4" x="1210" y="100" />
<node id="5" x="1660" y="100" />
<node id="6" x="2110" y="100" />
<node id="7" x="2560" y="100" />
<node id="8" x="3010" y="100" />
<node id="9" x="3460" y="100" />
<node id="10" x="3910" y="100" />
<node id="11" x="4360" y="100" />
<node id="12" x="4810" y="100" />
<node id="13" x="5110" y="100" />
<node id="14" x="310" y="150" />
<node id="15" x="760" y="150" />
<node id="16" x="1210" y="150" />
<node id="17" x="1660" y="150" />
<node id="18" x="2110" y="150" />
<node id="19" x="2560" y="150" />
<node id="20" x="3010" y="150" />
<node id="21" x="3460" y="150" />
<node id="22" x="3910" y="150" />
<node id="23" x="4360" y="150" />
<node id="24" x="4810" y="150" />
</nodes>
