<?xml version="1.0" encoding="UTF-8"?>

<!-- generated on Thu Dec 12 22:04:53 2019 by SUMO netconvert Version 0.32.0
<?xml version="1.0" encoding="UTF-8"?>

<configuration xmlns:xsi="http://www.w3.org/2001/XMLSchema-instance" xsi:noNamespaceSchemaLocation="http://sumo.dlr.de/xsd/netconvertConfiguration.xsd">

    <input>
        <node-files value="450.nod.xml"/>
        <edge-files value="450.edg.xml"/>
        <type-files value="net.typ.xml"/>
    </input>

    <output>
        <output-file value="450.net.xml"/>
    </output>

    <processing>
        <no-turnarounds value="true"/>
    </processing>

</configuration>
-->

<net version="0.27" xmlns:xsi="http://www.w3.org/2001/XMLSchema-instance" xsi:noNamespaceSchemaLocation="http://sumo.dlr.de/xsd/net_file.xsd">

    <location netOffset="-10.00,-100.00" convBoundary="0.00,0.00,5100.00,50.00" origBoundary="10.00,100.00,5110.00,150.00" projParameter="!"/>

    <type id="a" speed="10.00"/>

    <edge id=":10_0" function="internal">
        <lane id=":10_0_0" index="0" speed="10.00" length="5.00" shape="3898.35,1.45 3898.54,0.09 3899.12,-0.87 3900.09,-1.46 3901.45,-1.65"/>
    </edge>
    <edge id=":10_1" function="internal">
        <lane id=":10_1_0" index="0" speed="10.00" length="6.20" shape="3895.25,-1.65 3901.45,-1.65"/>
    </edge>
    <edge id=":11_0" function="internal">
        <lane id=":11_0_0" index="0" speed="10.00" length="5.00" shape="4348.35,1.45 4348.54,0.09 4349.12,-0.88 4350.09,-1.46 4351.45,-1.65"/>
    </edge>
    <edge id=":11_1" function="internal">
        <lane id=":11_1_0" index="0" speed="10.00" length="6.20" shape="4345.25,-1.65 4351.45,-1.65"/>
    </edge>
    <edge id=":12_0" function="internal">
        <lane id=":12_0_0" index="0" speed="10.00" length="5.00" shape="4798.35,1.45 4798.54,0.09 4799.12,-0.88 4800.09,-1.46 4801.45,-1.65"/>
    </edge>
    <edge id=":12_1" function="internal">
        <lane id=":12_1_0" index="0" speed="10.00" length="6.20" shape="4795.25,-1.65 4801.45,-1.65"/>
    </edge>
    <edge id=":2_0" function="internal">
        <lane id=":2_0_0" index="0" speed="10.00" length="5.00" shape="298.35,1.45 298.54,0.09 299.12,-0.88 300.09,-1.46 301.45,-1.65"/>
    </edge>
    <edge id=":2_1" function="internal">
        <lane id=":2_1_0" index="0" speed="10.00" length="6.20" shape="295.25,-1.65 301.45,-1.65"/>
    </edge>
    <edge id=":3_0" function="internal">
        <lane id=":3_0_0" index="0" speed="10.00" length="5.00" shape="748.35,1.45 748.54,0.09 749.12,-0.88 750.09,-1.46 751.45,-1.65"/>
    </edge>
    <edge id=":3_1" function="internal">
        <lane id=":3_1_0" index="0" speed="10.00" length="6.20" shape="745.25,-1.65 751.45,-1.65"/>
    </edge>
    <edge id=":4_0" function="internal">
        <lane id=":4_0_0" index="0" speed="10.00" length="5.00" shape="1198.35,1.45 1198.54,0.09 1199.12,-0.87 1200.09,-1.46 1201.45,-1.65"/>
    </edge>
    <edge id=":4_1" function="internal">
        <lane id=":4_1_0" index="0" speed="10.00" length="6.20" shape="1195.25,-1.65 1201.45,-1.65"/>
    </edge>
    <edge id=":5_0" function="internal">
        <lane id=":5_0_0" index="0" speed="10.00" length="5.00" shape="1648.35,1.45 1648.54,0.09 1649.12,-0.87 1650.09,-1.46 1651.45,-1.65"/>
    </edge>
    <edge id=":5_1" function="internal">
        <lane id=":5_1_0" index="0" speed="10.00" length="6.20" shape="1645.25,-1.65 1651.45,-1.65"/>
    </edge>
    <edge id=":6_0" function="internal">
        <lane id=":6_0_0" index="0" speed="10.00" length="5.00" shape="2098.35,1.45 2098.54,0.09 2099.12,-0.87 2100.09,-1.46 2101.45,-1.65"/>
    </edge>
    <edge id=":6_1" function="internal">
        <lane id=":6_1_0" index="0" speed="10.00" length="6.20" shape="2095.25,-1.65 2101.45,-1.65"/>
    </edge>
    <edge id=":7_0" function="internal">
        <lane id=":7_0_0" index="0" speed="10.00" length="5.00" shape="2548.35,1.45 2548.54,0.09 2549.12,-0.87 2550.09,-1.46 2551.45,-1.65"/>
    </edge>
    <edge id=":7_1" function="internal">
        <lane id=":7_1_0" index="0" speed="10.00" length="6.20" shape="2545.25,-1.65 2551.45,-1.65"/>
    </edge>
    <edge id=":8_0" function="internal">
        <lane id=":8_0_0" index="0" speed="10.00" length="5.00" shape="2998.35,1.45 2998.54,0.09 2999.12,-0.87 3000.09,-1.46 3001.45,-1.65"/>
    </edge>
    <edge id=":8_1" function="internal">
        <lane id=":8_1_0" index="0" speed="10.00" length="6.20" shape="2995.25,-1.65 3001.45,-1.65"/>
    </edge>
    <edge id=":9_0" function="internal">
        <lane id=":9_0_0" index="0" speed="10.00" length="5.00" shape="3448.35,1.45 3448.54,0.09 3449.12,-0.87 3450.09,-1.46 3451.45,-1.65"/>
    </edge>
    <edge id=":9_1" function="internal">
        <lane id=":9_1_0" index="0" speed="10.00" length="6.20" shape="3445.25,-1.65 3451.45,-1.65"/>
    </edge>

    <edge id="E1" from="1" to="2" priority="-1" type="a">
        <lane id="E1_0" index="0" speed="10.00" length="295.25" shape="0.00,-1.65 295.25,-1.65"/>
    </edge>
    <edge id="E10" from="10" to="11" priority="-1" type="a">
        <lane id="E10_0" index="0" speed="10.00" length="443.80" shape="3901.45,-1.65 4345.25,-1.65"/>
    </edge>
    <edge id="E11" from="11" to="12" priority="-1" type="a">
        <lane id="E11_0" index="0" speed="10.00" length="443.80" shape="4351.45,-1.65 4795.25,-1.65"/>
    </edge>
    <edge id="E12" from="12" to="13" priority="-1" type="a">
        <lane id="E12_0" index="0" speed="10.00" length="298.55" shape="4801.45,-1.65 5100.00,-1.65"/>
    </edge>
    <edge id="E13" from="14" to="2" priority="-1" type="a">
        <lane id="E13_0" index="0" speed="10.00" length="48.55" shape="298.35,50.00 298.35,1.45"/>
    </edge>
    <edge id="E14" from="15" to="3" priority="-1" type="a">
        <lane id="E14_0" index="0" speed="10.00" length="48.55" shape="748.35,50.00 748.35,1.45"/>
    </edge>
    <edge id="E15" from="16" to="4" priority="-1" type="a">
        <lane id="E15_0" index="0" speed="10.00" length="48.55" shape="1198.35,50.00 1198.35,1.45"/>
    </edge>
    <edge id="E16" from="17" to="5" priority="-1" type="a">
        <lane id="E16_0" index="0" speed="10.00" length="48.55" shape="1648.35,50.00 1648.35,1.45"/>
    </edge>
    <edge id="E17" from="18" to="6" priority="-1" type="a">
        <lane id="E17_0" index="0" speed="10.00" length="48.55" shape="2098.35,50.00 2098.35,1.45"/>
    </edge>
    <edge id="E18" from="19" to="7" priority="-1" type="a">
        <lane id="E18_0" index="0" speed="10.00" length="48.55" shape="2548.35,50.00 2548.35,1.45"/>
    </edge>
    <edge id="E19" from="20" to="8" priority="-1" type="a">
        <lane id="E19_0" index="0" speed="10.00" length="48.55" shape="2998.35,50.00 2998.35,1.45"/>
    </edge>
    <edge id="E2" from="2" to="3" priority="-1" type="a">
        <lane id="E2_0" index="0" speed="10.00" length="443.80" shape="301.45,-1.65 745.25,-1.65"/>
    </edge>
    <edge id="E20" from="21" to="9" priority="-1" type="a">
        <lane id="E20_0" index="0" speed="10.00" length="48.55" shape="3448.35,50.00 3448.35,1.45"/>
    </edge>
    <edge id="E21" from="22" to="10" priority="-1" type="a">
        <lane id="E21_0" index="0" speed="10.00" length="48.55" shape="3898.35,50.00 3898.35,1.45"/>
    </edge>
    <edge id="E22" from="23" to="11" priority="-1" type="a">
        <lane id="E22_0" index="0" speed="10.00" length="48.55" shape="4348.35,50.00 4348.35,1.45"/>
    </edge>
    <edge id="E23" from="24" to="12" priority="-1" type="a">
        <lane id="E23_0" index="0" speed="10.00" length="48.55" shape="4798.35,50.00 4798.35,1.45"/>
    </edge>
    <edge id="E3" from="3" to="4" priority="-1" type="a">
        <lane id="E3_0" index="0" speed="10.00" length="443.80" shape="751.45,-1.65 1195.25,-1.65"/>
    </edge>
    <edge id="E4" from="4" to="5" priority="-1" type="a">
        <lane id="E4_0" index="0" speed="10.00" length="443.80" shape="1201.45,-1.65 1645.25,-1.65"/>
    </edge>
    <edge id="E5" from="5" to="6" priority="-1" type="a">
        <lane id="E5_0" index="0" speed="10.00" length="443.80" shape="1651.45,-1.65 2095.25,-1.65"/>
    </edge>
    <edge id="E6" from="6" to="7" priority="-1" type="a">
        <lane id="E6_0" index="0" speed="10.00" length="443.80" shape="2101.45,-1.65 2545.25,-1.65"/>
    </edge>
    <edge id="E7" from="7" to="8" priority="-1" type="a">
        <lane id="E7_0" index="0" speed="10.00" length="443.80" shape="2551.45,-1.65 2995.25,-1.65"/>
    </edge>
    <edge id="E8" from="8" to="9" priority="-1" type="a">
        <lane id="E8_0" index="0" speed="10.00" length="443.80" shape="3001.45,-1.65 3445.25,-1.65"/>
    </edge>
    <edge id="E9" from="9" to="10" priority="-1" type="a">
        <lane id="E9_0" index="0" speed="10.00" length="443.80" shape="3451.45,-1.65 3895.25,-1.65"/>
    </edge>

    <junction id="1" type="dead_end" x="0.00" y="0.00" incLanes="" intLanes="" shape="0.00,-0.05 0.00,-3.25"/>
    <junction id="10" type="right_before_left" x="3900.00" y="0.00" incLanes="E21_0 E9_0" intLanes=":10_0_0 :10_1_0" shape="3896.75,1.45 3899.95,1.45 3901.45,-0.05 3901.45,-3.25 3895.25,-3.25 3895.25,-0.05">
        <request index="0" response="10" foes="10" cont="0"/>
        <request index="1" response="00" foes="01" cont="0"/>
    </junction>
    <junction id="11" type="right_before_left" x="4350.00" y="0.00" incLanes="E22_0 E10_0" intLanes=":11_0_0 :11_1_0" shape="4346.75,1.45 4349.95,1.45 4351.45,-0.05 4351.45,-3.25 4345.25,-3.25 4345.25,-0.05">
        <request index="0" response="10" foes="10" cont="0"/>
        <request index="1" response="00" foes="01" cont="0"/>
    </junction>
    <junction id="12" type="right_before_left" x="4800.00" y="0.00" incLanes="E23_0 E11_0" intLanes=":12_0_0 :12_1_0" shape="4796.75,1.45 4799.95,1.45 4801.45,-0.05 4801.45,-3.25 4795.25,-3.25 4795.25,-0.05">
        <request index="0" response="10" foes="10" cont="0"/>
        <request index="1" response="00" foes="01" cont="0"/>
    </junction>
    <junction id="13" type="dead_end" x="5100.00" y="0.00" incLanes="E12_0" intLanes="" shape="5100.00,-3.25 5100.00,-0.05"/>
    <junction id="14" type="dead_end" x="300.00" y="50.00" incLanes="" intLanes="" shape="299.95,50.00 296.75,50.00"/>
    <junction id="15" type="dead_end" x="750.00" y="50.00" incLanes="" intLanes="" shape="749.95,50.00 746.75,50.00"/>
    <junction id="16" type="dead_end" x="1200.00" y="50.00" incLanes="" intLanes="" shape="1199.95,50.00 1196.75,50.00"/>
    <junction id="17" type="dead_end" x="1650.00" y="50.00" incLanes="" intLanes="" shape="1649.95,50.00 1646.75,50.00"/>
    <junction id="18" type="dead_end" x="2100.00" y="50.00" incLanes="" intLanes="" shape="2099.95,50.00 2096.75,50.00"/>
    <junction id="19" type="dead_end" x="2550.00" y="50.00" incLanes="" intLanes="" shape="2549.95,50.00 2546.75,50.00"/>
    <junction id="2" type="right_before_left" x="300.00" y="0.00" incLanes="E13_0 E1_0" intLanes=":2_0_0 :2_1_0" shape="296.75,1.45 299.95,1.45 301.45,-0.05 301.45,-3.25 295.25,-3.25 295.25,-0.05">
        <request index="0" response="10" foes="10" cont="0"/>
        <request index="1" response="00" foes="01" cont="0"/>
    </junction>
    <junction id="20" type="dead_end" x="3000.00" y="50.00" incLanes="" intLanes="" shape="2999.95,50.00 2996.75,50.00"/>
    <junction id="21" type="dead_end" x="3450.00" y="50.00" incLanes="" intLanes="" shape="3449.95,50.00 3446.75,50.00"/>
    <junction id="22" type="dead_end" x="3900.00" y="50.00" incLanes="" intLanes="" shape="3899.95,50.00 3896.75,50.00"/>
    <junction id="23" type="dead_end" x="4350.00" y="50.00" incLanes="" intLanes="" shape="4349.95,50.00 4346.75,50.00"/>
    <junction id="24" type="dead_end" x="4800.00" y="50.00" incLanes="" intLanes="" shape="4799.95,50.00 4796.75,50.00"/>
    <junction id="3" type="right_before_left" x="750.00" y="0.00" incLanes="E14_0 E2_0" intLanes=":3_0_0 :3_1_0" shape="746.75,1.45 749.95,1.45 751.45,-0.05 751.45,-3.25 745.25,-3.25 745.25,-0.05">
        <request index="0" response="10" foes="10" cont="0"/>
        <request index="1" response="00" foes="01" cont="0"/>
    </junction>
    <junction id="4" type="right_before_left" x="1200.00" y="0.00" incLanes="E15_0 E3_0" intLanes=":4_0_0 :4_1_0" shape="1196.75,1.45 1199.95,1.45 1201.45,-0.05 1201.45,-3.25 1195.25,-3.25 1195.25,-0.05">
        <request index="0" response="10" foes="10" cont="0"/>
        <request index="1" response="00" foes="01" cont="0"/>
    </junction>
    <junction id="5" type="right_before_left" x="1650.00" y="0.00" incLanes="E16_0 E4_0" intLanes=":5_0_0 :5_1_0" shape="1646.75,1.45 1649.95,1.45 1651.45,-0.05 1651.45,-3.25 1645.25,-3.25 1645.25,-0.05">
        <request index="0" response="10" foes="10" cont="0"/>
        <request index="1" response="00" foes="01" cont="0"/>
    </junction>
    <junction id="6" type="right_before_left" x="2100.00" y="0.00" incLanes="E17_0 E5_0" intLanes=":6_0_0 :6_1_0" shape="2096.75,1.45 2099.95,1.45 2101.45,-0.05 2101.45,-3.25 2095.25,-3.25 2095.25,-0.05">
        <request index="0" response="10" foes="10" cont="0"/>
        <request index="1" response="00" foes="01" cont="0"/>
    </junction>
    <junction id="7" type="right_before_left" x="2550.00" y="0.00" incLanes="E18_0 E6_0" intLanes=":7_0_0 :7_1_0" shape="2546.75,1.45 2549.95,1.45 2551.45,-0.05 2551.45,-3.25 2545.25,-3.25 2545.25,-0.05">
        <request index="0" response="10" foes="10" cont="0"/>
        <request index="1" response="00" foes="01" cont="0"/>
    </junction>
    <junction id="8" type="right_before_left" x="3000.00" y="0.00" incLanes="E19_0 E7_0" intLanes=":8_0_0 :8_1_0" shape="2996.75,1.45 2999.95,1.45 3001.45,-0.05 3001.45,-3.25 2995.25,-3.25 2995.25,-0.05">
        <request index="0" response="10" foes="10" cont="0"/>
        <request index="1" response="00" foes="01" cont="0"/>
    </junction>
    <junction id="9" type="right_before_left" x="3450.00" y="0.00" incLanes="E20_0 E8_0" intLanes=":9_0_0 :9_1_0" shape="3446.75,1.45 3449.95,1.45 3451.45,-0.05 3451.45,-3.25 3445.25,-3.25 3445.25,-0.05">
        <request index="0" response="10" foes="10" cont="0"/>
        <request index="1" response="00" foes="01" cont="0"/>
    </junction>

    <connection from="E1" to="E2" fromLane="0" toLane="0" via=":2_1_0" dir="s" state="="/>
    <connection from="E10" to="E11" fromLane="0" toLane="0" via=":11_1_0" dir="s" state="="/>
    <connection from="E11" to="E12" fromLane="0" toLane="0" via=":12_1_0" dir="s" state="="/>
    <connection from="E13" to="E2" fromLane="0" toLane="0" via=":2_0_0" dir="l" state="="/>
    <connection from="E14" to="E3" fromLane="0" toLane="0" via=":3_0_0" dir="l" state="="/>
    <connection from="E15" to="E4" fromLane="0" toLane="0" via=":4_0_0" dir="l" state="="/>
    <connection from="E16" to="E5" fromLane="0" toLane="0" via=":5_0_0" dir="l" state="="/>
    <connection from="E17" to="E6" fromLane="0" toLane="0" via=":6_0_0" dir="l" state="="/>
    <connection from="E18" to="E7" fromLane="0" toLane="0" via=":7_0_0" dir="l" state="="/>
    <connection from="E19" to="E8" fromLane="0" toLane="0" via=":8_0_0" dir="l" state="="/>
    <connection from="E2" to="E3" fromLane="0" toLane="0" via=":3_1_0" dir="s" state="="/>
    <connection from="E20" to="E9" fromLane="0" toLane="0" via=":9_0_0" dir="l" state="="/>
    <connection from="E21" to="E10" fromLane="0" toLane="0" via=":10_0_0" dir="l" state="="/>
    <connection from="E22" to="E11" fromLane="0" toLane="0" via=":11_0_0" dir="l" state="="/>
    <connection from="E23" to="E12" fromLane="0" toLane="0" via=":12_0_0" dir="l" state="="/>
    <connection from="E3" to="E4" fromLane="0" toLane="0" via=":4_1_0" dir="s" state="="/>
    <connection from="E4" to="E5" fromLane="0" toLane="0" via=":5_1_0" dir="s" state="="/>
    <connection from="E5" to="E6" fromLane="0" toLane="0" via=":6_1_0" dir="s" state="="/>
    <connection from="E6" to="E7" fromLane="0" toLane="0" via=":7_1_0" dir="s" state="="/>
    <connection from="E7" to="E8" fromLane="0" toLane="0" via=":8_1_0" dir="s" state="="/>
    <connection from="E8" to="E9" fromLane="0" toLane="0" via=":9_1_0" dir="s" state="="/>
    <connection from="E9" to="E10" fromLane="0" toLane="0" via=":10_1_0" dir="s" state="="/>

    <connection from=":10_0" to="E10" fromLane="0" toLane="0" dir="l" state="M"/>
    <connection from=":10_1" to="E10" fromLane="0" toLane="0" dir="s" state="M"/>
    <connection from=":11_0" to="E11" fromLane="0" toLane="0" dir="l" state="M"/>
    <connection from=":11_1" to="E11" fromLane="0" toLane="0" dir="s" state="M"/>
    <connection from=":12_0" to="E12" fromLane="0" toLane="0" dir="l" state="M"/>
    <connection from=":12_1" to="E12" fromLane="0" toLane="0" dir="s" state="M"/>
    <connection from=":2_0" to="E2" fromLane="0" toLane="0" dir="l" state="M"/>
    <connection from=":2_1" to="E2" fromLane="0" toLane="0" dir="s" state="M"/>
    <connection from=":3_0" to="E3" fromLane="0" toLane="0" dir="l" state="M"/>
    <connection from=":3_1" to="E3" fromLane="0" toLane="0" dir="s" state="M"/>
    <connection from=":4_0" to="E4" fromLane="0" toLane="0" dir="l" state="M"/>
    <connection from=":4_1" to="E4" fromLane="0" toLane="0" dir="s" state="M"/>
    <connection from=":5_0" to="E5" fromLane="0" toLane="0" dir="l" state="M"/>
    <connection from=":5_1" to="E5" fromLane="0" toLane="0" dir="s" state="M"/>
    <connection from=":6_0" to="E6" fromLane="0" toLane="0" dir="l" state="M"/>
    <connection from=":6_1" to="E6" fromLane="0" toLane="0" dir="s" state="M"/>
    <connection from=":7_0" to="E7" fromLane="0" toLane="0" dir="l" state="M"/>
    <connection from=":7_1" to="E7" fromLane="0" toLane="0" dir="s" state="M"/>
    <connection from=":8_0" to="E8" fromLane="0" toLane="0" dir="l" state="M"/>
    <connection from=":8_1" to="E8" fromLane="0" toLane="0" dir="s" state="M"/>
    <connection from=":9_0" to="E9" fromLane="0" toLane="0" dir="l" state="M"/>
    <connection from=":9_1" to="E9" fromLane="0" toLane="0" dir="s" state="M"/>

</net>
