<nodes>
<node id="1" x="10" y="100" />
<node id="2" x="310" y="100" />
<node id="3" x="910" y="100" />
<node id="4" x="1510" y="100" />
<node id="5" x="2110" y="100" />
<node id="6" x="2710" y="100" />
<node id="7" x="3310" y="100" />
<node id="8" x="3910" y="100" />
<node id="9" x="4510" y="100" />
<node id="10" x="5110" y="100" />
<node id="11" x="5410" y="100" />
<node id="12" x="310" y="150" />
<node id="13" x="910" y="150" />
<node id="14" x="1510" y="150" />
<node id="15" x="2110" y="150" />
<node id="16" x="2710" y="150" />
<node id="17" x="3310" y="150" />
<node id="18" x="3910" y="150" />
<node id="19" x="4510" y="150" />
<node id="20" x="5110" y="150" />
</nodes>
