<types>
<type id="a" numlanes="2" speed="10" />
</types>
