<?xml version="1.0" encoding="UTF-8"?>

<!-- generated on ter 23 abr 2019 13:57:32 -03 by Netedit Version 0.32.0
<?xml version="1.0" encoding="UTF-8"?>

<configuration xmlns:xsi="http://www.w3.org/2001/XMLSchema-instance" xsi:noNamespaceSchemaLocation="http://sumo.dlr.de/xsd/netconvertConfiguration.xsd">

    <input>
        <sumo-net-file value="/home/wagner/compartilhada/transferir/dtn/ex3.net.xml"/>
    </input>

    <output>
        <output-file value="/home/wagner/compartilhada/transferir/dtn/ex1.net.xml"/>
    </output>

    <processing>
        <no-turnarounds value="true"/>
        <offset.disable-normalization value="true"/>
        <lefthand value="false"/>
        <junctions.corner-detail value="0"/>
        <rectangular-lane-cut value="false"/>
        <walkingareas value="false"/>
    </processing>

</configuration>
-->

<net version="0.27" xmlns:xsi="http://www.w3.org/2001/XMLSchema-instance" xsi:noNamespaceSchemaLocation="http://sumo.dlr.de/xsd/net_file.xsd">

    <location netOffset="0.00,0.00" convBoundary="14.82,27.69,12046.93,12525.97" origBoundary="1100.00,1300.00,10500.00,10800.00" projParameter="!"/>

    <type id="a" numLanes="1" speed="15.00"/>
    <type id="b" numLanes="2" speed="25.00"/>
    <type id="c" numLanes="3" speed="35.00"/>

    <edge id=":1_0" function="internal">
        <lane id=":1_0_0" index="0" speed="14.45" length="6.16" shape="7001.85,1306.90 7000.82,1305.54 6999.71,1305.13 6998.53,1305.68 6997.26,1307.19"/>
    </edge>
    <edge id=":1_1" function="internal">
        <lane id=":1_1_0" index="0" speed="15.00" length="11.31" shape="7001.85,1306.90 7000.20,1304.60 6998.09,1302.96 6995.52,1301.98 6992.49,1301.65"/>
    </edge>
    <edge id=":1_2" function="internal">
        <lane id=":1_2_0" index="0" speed="14.45" length="11.40" shape="7001.85,1306.90 7000.36,1303.58 6999.71,1300.68 6999.88,1298.20 7000.89,1296.13"/>
    </edge>
    <edge id=":1_3" function="internal">
        <lane id=":1_3_0" index="0" speed="15.00" length="4.82" shape="7001.85,1306.90 7001.99,1305.42 7002.52,1304.66 7003.44,1304.63 7004.76,1305.33"/>
    </edge>
    <edge id=":1_4" function="internal">
        <lane id=":1_4_0" index="0" speed="14.45" length="7.62" shape="7003.51,1298.14 7003.00,1299.35 7003.05,1300.95 7003.63,1302.94 7004.76,1305.33"/>
    </edge>
    <edge id=":1_5" function="internal">
        <lane id=":1_5_0" index="0" speed="13.89" length="10.99" shape="7003.51,1298.14 6997.26,1307.19"/>
    </edge>
    <edge id=":1_6" function="internal">
        <lane id=":1_6_0" index="0" speed="14.45" length="4.57" shape="7003.51,1298.14 7001.81,1299.68 6999.73,1300.62"/>
    </edge>
    <edge id=":1_7" function="internal">
        <lane id=":1_7_0" index="0" speed="13.89" length="2.41" shape="7003.51,1298.14 7002.10,1298.62 7001.19,1298.45"/>
    </edge>
    <edge id=":1_16" function="internal">
        <lane id=":1_16_0" index="0" speed="14.45" length="7.35" shape="6999.73,1300.62 6999.40,1300.77 6996.30,1301.43 6992.49,1301.65"/>
    </edge>
    <edge id=":1_17" function="internal">
        <lane id=":1_17_0" index="0" speed="13.89" length="2.41" shape="7001.19,1298.45 7000.79,1297.62 7000.89,1296.13"/>
    </edge>
    <edge id=":1_8" function="internal">
        <lane id=":1_8_0" index="0" speed="14.45" length="8.92" shape="6992.49,1298.35 6995.52,1298.21 6997.94,1297.80 6999.72,1297.10 7000.89,1296.13"/>
    </edge>
    <edge id=":1_9" function="internal">
        <lane id=":1_9_0" index="0" speed="15.00" length="14.87" shape="6992.49,1298.35 6996.44,1298.79 6999.80,1300.09 7002.57,1302.28 7004.76,1305.33"/>
    </edge>
    <edge id=":1_10" function="internal">
        <lane id=":1_10_0" index="0" speed="14.45" length="14.13" shape="6992.49,1298.35 6996.75,1298.90 6998.96,1300.56 6999.14,1303.32 6997.26,1307.19"/>
    </edge>
    <edge id=":1_11" function="internal">
        <lane id=":1_11_0" index="0" speed="15.00" length="4.82" shape="6992.49,1298.35 6993.72,1299.18 6994.14,1300.00 6993.72,1300.83 6992.49,1301.65"/>
    </edge>
    <edge id=":1_12" function="internal">
        <lane id=":1_12_0" index="0" speed="14.45" length="5.96" shape="6994.50,1305.38 6995.29,1303.75 6995.22,1302.58 6994.29,1301.88 6992.49,1301.65"/>
    </edge>
    <edge id=":1_13" function="internal">
        <lane id=":1_13_0" index="0" speed="13.89" length="11.24" shape="6994.50,1305.38 7000.89,1296.13"/>
    </edge>
    <edge id=":1_14" function="internal">
        <lane id=":1_14_0" index="0" speed="14.45" length="6.57" shape="6994.50,1305.38 6997.26,1302.15 6999.41,1301.26"/>
    </edge>
    <edge id=":1_15" function="internal">
        <lane id=":1_15_0" index="0" speed="13.89" length="2.41" shape="6994.50,1305.38 6995.87,1304.80 6996.79,1304.91"/>
    </edge>
    <edge id=":1_18" function="internal">
        <lane id=":1_18_0" index="0" speed="14.45" length="7.21" shape="6999.41,1301.26 6999.88,1301.07 7002.38,1302.13 7004.76,1305.33"/>
    </edge>
    <edge id=":1_19" function="internal">
        <lane id=":1_19_0" index="0" speed="13.89" length="2.41" shape="6996.79,1304.91 6997.25,1305.70 6997.26,1307.19"/>
    </edge>
    <edge id=":10_0" function="internal">
        <lane id=":10_0_0" index="0" speed="13.89" length="6.35" shape="6005.14,10804.89 6003.27,10804.07 6001.79,10803.98 6000.71,10804.63 6000.01,10806.03"/>
    </edge>
    <edge id=":10_1" function="internal">
        <lane id=":10_1_0" index="0" speed="14.45" length="12.21" shape="6005.14,10804.89 6002.21,10803.33 5999.60,10802.33 5996.87,10801.80 5993.56,10801.65"/>
    </edge>
    <edge id=":10_2" function="internal">
        <lane id=":10_2_0" index="0" speed="14.45" length="24.36" shape="6005.14,10804.89 6001.49,10801.34 5997.52,10795.63 5993.99,10789.53 5991.66,10784.81"/>
    </edge>
    <edge id=":10_3" function="internal">
        <lane id=":10_3_0" index="0" speed="14.45" length="3.97" shape="6005.14,10804.89 6002.28,10802.14"/>
    </edge>
    <edge id=":10_4" function="internal">
        <lane id=":10_4_0" index="0" speed="14.45" length="4.29" shape="6005.14,10804.89 6002.03,10802.44 6001.91,10802.14"/>
    </edge>
    <edge id=":10_5" function="internal">
        <lane id=":10_5_0" index="0" speed="13.89" length="2.23" shape="6005.14,10804.89 6004.49,10803.56 6004.53,10802.82"/>
    </edge>
    <edge id=":10_36" function="internal">
        <lane id=":10_36_0" index="0" speed="14.45" length="20.03" shape="6002.28,10802.14 6002.17,10802.03 6000.05,10797.39 5998.77,10790.96 5998.35,10782.75"/>
    </edge>
    <edge id=":10_37" function="internal">
        <lane id=":10_37_0" index="0" speed="14.45" length="9.35" shape="6001.91,10802.14 6001.03,10799.93 6002.14,10797.35 6005.37,10794.72"/>
    </edge>
    <edge id=":10_38" function="internal">
        <lane id=":10_38_0" index="0" speed="13.89" length="2.59" shape="6004.53,10802.82 6004.54,10802.64 6005.31,10802.13 6006.80,10802.04"/>
    </edge>
    <edge id=":10_6" function="internal">
        <lane id=":10_6_0" index="0" speed="14.45" length="6.06" shape="6007.11,10797.52 6005.63,10798.71 6005.08,10799.87 6005.47,10800.97 6006.80,10802.04"/>
    </edge>
    <edge id=":10_7" function="internal">
        <lane id=":10_7_0" index="0" speed="14.45" length="11.46" shape="6007.11,10797.52 6004.40,10799.28 6002.48,10800.96 6001.10,10803.04 6000.01,10806.03"/>
    </edge>
    <edge id=":10_8" function="internal">
        <lane id=":10_8_0" index="0" speed="15.00" length="14.35" shape="6007.11,10797.52 6003.91,10799.28 6000.62,10800.57 5997.19,10801.38 5993.56,10801.65"/>
    </edge>
    <edge id=":10_9" function="internal">
        <lane id=":10_9_0" index="0" speed="15.00" length="22.62" shape="6007.11,10797.52 6003.20,10798.56 5999.31,10796.79 5995.47,10792.21 5991.66,10784.81"/>
    </edge>
    <edge id=":10_10" function="internal">
        <lane id=":10_10_0" index="0" speed="15.00" length="21.51" shape="6007.11,10797.52 6003.28,10798.64 6000.54,10796.55 5998.90,10791.26 5998.35,10782.75"/>
    </edge>
    <edge id=":10_11" function="internal">
        <lane id=":10_11_0" index="0" speed="15.00" length="4.82" shape="6007.11,10797.52 6005.63,10797.47 6004.84,10796.99 6004.75,10796.07 6005.37,10794.72"/>
    </edge>
    <edge id=":10_12" function="internal">
        <lane id=":10_12_0" index="0" speed="15.00" length="14.10" shape="6001.65,10782.75 6001.88,10788.85 6002.58,10792.88 6003.74,10794.84 6005.37,10794.72"/>
    </edge>
    <edge id=":10_13" function="internal">
        <lane id=":10_13_0" index="0" speed="14.45" length="20.60" shape="6001.65,10782.75 6001.97,10790.07 6002.94,10795.72 6004.55,10799.71 6006.80,10802.04"/>
    </edge>
    <edge id=":10_14" function="internal">
        <lane id=":10_14_0" index="0" speed="14.45" length="23.37" shape="6001.65,10782.75 6001.59,10787.82 6001.34,10794.46 6000.84,10801.06 6000.01,10806.03"/>
    </edge>
    <edge id=":10_15" function="internal">
        <lane id=":10_15_0" index="0" speed="15.00" length="22.47" shape="6001.65,10782.75 6001.14,10791.02 5999.63,10796.92 5997.10,10800.47 5993.56,10801.65"/>
    </edge>
    <edge id=":10_16" function="internal">
        <lane id=":10_16_0" index="0" speed="15.00" length="27.25" shape="6001.65,10782.75 6001.03,10792.35 5999.15,10795.89 5996.03,10793.38 5991.66,10784.81"/>
    </edge>
    <edge id=":10_17" function="internal">
        <lane id=":10_17_0" index="0" speed="15.00" length="4.82" shape="6001.65,10782.75 6000.83,10783.99 6000.00,10784.40 5999.18,10783.99 5998.35,10782.75"/>
    </edge>
    <edge id=":10_18" function="internal">
        <lane id=":10_18_0" index="0" speed="15.00" length="9.99" shape="5994.69,10783.51 5996.29,10786.64 5997.43,10787.57 5998.12,10786.27 5998.35,10782.75"/>
    </edge>
    <edge id=":10_19" function="internal">
        <lane id=":10_19_0" index="0" speed="15.00" length="16.95" shape="5994.69,10783.51 5997.63,10789.49 6000.39,10793.35 6002.97,10795.09 6005.37,10794.72"/>
    </edge>
    <edge id=":10_20" function="internal">
        <lane id=":10_20_0" index="0" speed="14.45" length="22.33" shape="5994.69,10783.51 5996.81,10787.99 5999.86,10793.55 6003.36,10798.73 6006.80,10802.04"/>
    </edge>
    <edge id=":10_21" function="internal">
        <lane id=":10_21_0" index="0" speed="14.45" length="23.35" shape="5994.69,10783.51 5996.55,10788.28 5998.60,10794.68 6000.03,10801.12 6000.01,10806.03"/>
    </edge>
    <edge id=":10_22" function="internal">
        <lane id=":10_22_0" index="0" speed="15.00" length="21.42" shape="5994.69,10783.51 5997.55,10791.44 5998.32,10797.11 5996.99,10800.52 5993.56,10801.65"/>
    </edge>
    <edge id=":10_23" function="internal">
        <lane id=":10_23_0" index="0" speed="15.00" length="4.82" shape="5994.69,10783.51 5994.42,10784.97 5993.82,10785.67 5992.90,10785.62 5991.66,10784.81"/>
    </edge>
    <edge id=":10_24" function="internal">
        <lane id=":10_24_0" index="0" speed="15.00" length="14.86" shape="5993.56,10798.35 5994.92,10797.50 5995.05,10794.97 5993.96,10790.73 5991.66,10784.81"/>
    </edge>
    <edge id=":10_25" function="internal">
        <lane id=":10_25_0" index="0" speed="15.00" length="17.39" shape="5993.56,10798.35 5995.66,10797.37 5997.15,10794.45 5998.05,10789.57 5998.35,10782.75"/>
    </edge>
    <edge id=":10_26" function="internal">
        <lane id=":10_26_0" index="0" speed="15.00" length="12.56" shape="5993.56,10798.35 5996.92,10798.15 5999.75,10797.52 6002.44,10796.40 6005.37,10794.72"/>
    </edge>
    <edge id=":10_27" function="internal">
        <lane id=":10_27_0" index="0" speed="14.45" length="13.91" shape="5993.56,10798.35 5997.13,10798.57 6000.43,10799.25 6003.61,10800.40 6006.80,10802.04"/>
    </edge>
    <edge id=":10_28" function="internal">
        <lane id=":10_28_0" index="0" speed="14.45" length="12.33" shape="5993.56,10798.35 5997.20,10798.83 5999.48,10800.27 6000.42,10802.67 6000.01,10806.03"/>
    </edge>
    <edge id=":10_29" function="internal">
        <lane id=":10_29_0" index="0" speed="15.00" length="4.82" shape="5993.56,10798.35 5994.80,10799.18 5995.21,10800.00 5994.80,10800.83 5993.56,10801.65"/>
    </edge>
    <edge id=":10_30" function="internal">
        <lane id=":10_30_0" index="0" speed="14.45" length="5.86" shape="5996.84,10805.13 5997.00,10803.61 5996.51,10802.52 5995.36,10801.87 5993.56,10801.65"/>
    </edge>
    <edge id=":10_31" function="internal">
        <lane id=":10_31_0" index="0" speed="14.45" length="21.19" shape="5996.84,10805.13 5996.88,10800.57 5995.50,10794.89 5993.49,10789.25 5991.66,10784.81"/>
    </edge>
    <edge id=":10_32" function="internal">
        <lane id=":10_32_0" index="0" speed="14.45" length="22.47" shape="5996.84,10805.13 5997.65,10800.30 5998.10,10794.01 5998.30,10787.68 5998.35,10782.75"/>
    </edge>
    <edge id=":10_33" function="internal">
        <lane id=":10_33_0" index="0" speed="14.45" length="13.79" shape="5996.84,10805.13 5998.15,10801.84 6000.02,10799.11 6002.44,10796.78 6005.37,10794.72"/>
    </edge>
    <edge id=":10_34" function="internal">
        <lane id=":10_34_0" index="0" speed="13.89" length="12.70" shape="5996.84,10805.13 5998.27,10802.08 6000.40,10800.54 6003.25,10800.53 6006.80,10802.04"/>
    </edge>
    <edge id=":10_35" function="internal">
        <lane id=":10_35_0" index="0" speed="13.89" length="2.75" shape="5996.84,10805.13 5997.97,10804.16 5998.87,10803.99 5999.13,10804.22"/>
    </edge>
    <edge id=":10_39" function="internal">
        <lane id=":10_39_0" index="0" speed="13.89" length="2.07" shape="5999.13,10804.22 5999.56,10804.61 6000.01,10806.03"/>
    </edge>
    <edge id=":2_0" function="internal">
        <lane id=":2_0_0" index="0" speed="15.00" length="8.67" shape="9001.99,5007.67 9000.52,5005.28 8998.94,5003.74 8997.24,5003.07 8995.43,5003.26"/>
    </edge>
    <edge id=":2_1" function="internal">
        <lane id=":2_1_0" index="0" speed="15.00" length="15.37" shape="9001.99,5007.67 8994.90,4994.04"/>
    </edge>
    <edge id=":2_2" function="internal">
        <lane id=":2_2_0" index="0" speed="14.45" length="15.84" shape="9001.99,5007.67 9000.55,5003.84 9000.08,5000.02 9000.58,4996.22 9002.04,4992.43"/>
    </edge>
    <edge id=":2_3" function="internal">
        <lane id=":2_3_0" index="0" speed="14.45" length="14.44" shape="9001.99,5007.67 9000.53,5003.50 9001.03,5000.75 9003.49,4999.42 9007.91,4999.52"/>
    </edge>
    <edge id=":2_4" function="internal">
        <lane id=":2_4_0" index="0" speed="15.00" length="4.82" shape="9001.99,5007.67 9002.18,5006.20 9002.73,5005.46 9003.65,5005.46 9004.94,5006.20"/>
    </edge>
    <edge id=":2_5" function="internal">
        <lane id=":2_5_0" index="0" speed="14.45" length="6.05" shape="9007.43,5002.78 9005.57,5002.74 9004.54,5003.30 9004.33,5004.45 9004.94,5006.20"/>
    </edge>
    <edge id=":2_6" function="internal">
        <lane id=":2_6_0" index="0" speed="14.45" length="12.16" shape="9007.43,5002.78 9004.13,5002.32 9001.35,5002.15 8998.61,5002.42 8995.43,5003.26"/>
    </edge>
    <edge id=":2_7" function="internal">
        <lane id=":2_7_0" index="0" speed="14.45" length="15.85" shape="9007.43,5002.78 9003.46,5001.76 9000.05,4999.96 8997.20,4997.39 8994.90,4994.04"/>
    </edge>
    <edge id=":2_8" function="internal">
        <lane id=":2_8_0" index="0" speed="13.89" length="14.62" shape="9007.43,5002.78 9003.36,5001.58 9001.11,4999.45 9000.67,4996.40 9002.04,4992.43"/>
    </edge>
    <edge id=":2_9" function="internal">
        <lane id=":2_9_0" index="0" speed="13.89" length="2.69" shape="9007.43,5002.78 9006.32,5001.78 9006.04,5000.91 9006.20,5000.68"/>
    </edge>
    <edge id=":2_25" function="internal">
        <lane id=":2_25_0" index="0" speed="13.89" length="2.13" shape="9006.20,5000.68 9006.57,5000.15 9007.91,4999.52"/>
    </edge>
    <edge id=":2_10" function="internal">
        <lane id=":2_10_0" index="0" speed="13.89" length="7.90" shape="9004.97,4993.94 9004.24,4996.08 9004.48,4997.72 9005.71,4998.87 9007.91,4999.52"/>
    </edge>
    <edge id=":2_11" function="internal">
        <lane id=":2_11_0" index="0" speed="14.45" length="12.74" shape="9004.97,4993.94 9003.80,4996.98 9003.40,5000.04 9003.79,5003.11 9004.94,5006.20"/>
    </edge>
    <edge id=":2_12" function="internal">
        <lane id=":2_12_0" index="0" speed="14.45" length="4.69" shape="9004.97,4993.94 9003.18,4997.05 9002.50,4997.92"/>
    </edge>
    <edge id=":2_13" function="internal">
        <lane id=":2_13_0" index="0" speed="14.45" length="4.38" shape="9004.97,4993.94 9002.49,4997.54"/>
    </edge>
    <edge id=":2_14" function="internal">
        <lane id=":2_14_0" index="0" speed="13.89" length="2.20" shape="9004.97,4993.94 9003.67,4994.66 9002.96,4994.65"/>
    </edge>
    <edge id=":2_26" function="internal">
        <lane id=":2_26_0" index="0" speed="14.45" length="9.02" shape="9002.50,4997.92 9001.12,4999.68 8998.60,5001.76 8995.43,5003.26"/>
    </edge>
    <edge id=":2_27" function="internal">
        <lane id=":2_27_0" index="0" speed="14.45" length="9.95" shape="9002.49,4997.54 8999.99,4998.76 8997.46,4997.60 8994.90,4994.04"/>
    </edge>
    <edge id=":2_28" function="internal">
        <lane id=":2_28_0" index="0" speed="13.89" length="2.62" shape="9002.96,4994.65 9002.75,4994.65 9002.20,4993.91 9002.04,4992.43"/>
    </edge>
    <edge id=":2_15" function="internal">
        <lane id=":2_15_0" index="0" speed="14.45" length="6.02" shape="8997.81,4992.47 8998.88,4993.97 8999.94,4994.46 9000.99,4993.94 9002.04,4992.43"/>
    </edge>
    <edge id=":2_16" function="internal">
        <lane id=":2_16_0" index="0" speed="14.45" length="12.79" shape="8997.81,4992.47 8999.66,4995.17 9001.96,4997.24 9004.71,4998.69 9007.91,4999.52"/>
    </edge>
    <edge id=":2_17" function="internal">
        <lane id=":2_17_0" index="0" speed="15.00" length="15.47" shape="8997.81,4992.47 9004.94,5006.20"/>
    </edge>
    <edge id=":2_18" function="internal">
        <lane id=":2_18_0" index="0" speed="15.00" length="13.07" shape="8997.81,4992.47 8999.38,4996.32 8999.50,4999.41 8998.19,5001.72 8995.43,5003.26"/>
    </edge>
    <edge id=":2_19" function="internal">
        <lane id=":2_19_0" index="0" speed="15.00" length="4.82" shape="8997.81,4992.47 8997.67,4993.95 8997.14,4994.71 8996.22,4994.74 8994.90,4994.04"/>
    </edge>
    <edge id=":2_20" function="internal">
        <lane id=":2_20_0" index="0" speed="15.00" length="7.09" shape="8994.38,5000.13 8995.63,4999.35 8996.13,4998.07 8995.89,4996.30 8994.90,4994.04"/>
    </edge>
    <edge id=":2_21" function="internal">
        <lane id=":2_21_0" index="0" speed="14.45" length="11.28" shape="8994.38,5000.13 8997.26,4998.89 8999.13,4997.36 9000.54,4995.29 9002.04,4992.43"/>
    </edge>
    <edge id=":2_22" function="internal">
        <lane id=":2_22_0" index="0" speed="14.45" length="13.68" shape="8994.38,5000.13 8997.80,4999.27 9001.07,4998.95 9004.38,4999.08 9007.91,4999.52"/>
    </edge>
    <edge id=":2_23" function="internal">
        <lane id=":2_23_0" index="0" speed="15.00" length="13.43" shape="8994.38,5000.13 8997.46,4999.71 9000.25,5000.57 9002.74,5002.74 9004.94,5006.20"/>
    </edge>
    <edge id=":2_24" function="internal">
        <lane id=":2_24_0" index="0" speed="15.00" length="4.82" shape="8994.38,5000.13 8995.82,5000.52 8996.47,5001.18 8996.34,5002.09 8995.43,5003.26"/>
    </edge>
    <edge id=":3_0" function="internal">
        <lane id=":3_0_0" index="0" speed="14.45" length="5.10" shape="10500.82,8005.23 10500.01,8004.08 10499.03,8003.50 10497.89,8003.49 10496.60,8004.06"/>
    </edge>
    <edge id=":3_1" function="internal">
        <lane id=":3_1_0" index="0" speed="14.45" length="9.92" shape="10500.82,8005.23 10496.35,7996.39"/>
    </edge>
    <edge id=":3_2" function="internal">
        <lane id=":3_2_0" index="0" speed="13.89" length="10.65" shape="10500.82,8005.23 10499.86,8002.45 10499.98,8000.02 10501.19,7997.95 10503.48,7996.22"/>
    </edge>
    <edge id=":3_3" function="internal">
        <lane id=":3_3_0" index="0" speed="13.89" length="2.68" shape="10500.82,8005.23 10500.99,8003.76 10501.54,8003.01 10501.81,8003.01"/>
    </edge>
    <edge id=":3_16" function="internal">
        <lane id=":3_16_0" index="0" speed="13.89" length="2.14" shape="10501.81,8003.01 10502.46,8003.01 10503.76,8003.73"/>
    </edge>
    <edge id=":3_4" function="internal">
        <lane id=":3_4_0" index="0" speed="13.89" length="5.43" shape="10505.06,7999.12 10503.91,7999.99 10503.31,8001.05 10503.26,8002.30 10503.76,8003.73"/>
    </edge>
    <edge id=":3_5" function="internal">
        <lane id=":3_5_0" index="0" speed="14.45" length="9.80" shape="10505.06,7999.12 10496.60,8004.06"/>
    </edge>
    <edge id=":3_6" function="internal">
        <lane id=":3_6_0" index="0" speed="14.45" length="3.46" shape="10505.06,7999.12 10502.35,8000.13 10501.78,8000.10"/>
    </edge>
    <edge id=":3_7" function="internal">
        <lane id=":3_7_0" index="0" speed="13.89" length="2.19" shape="10505.06,7999.12 10503.58,7998.99 10503.00,7998.59"/>
    </edge>
    <edge id=":3_17" function="internal">
        <lane id=":3_17_0" index="0" speed="14.45" length="7.04" shape="10501.78,8000.10 10500.00,8000.01 10498.00,7998.76 10496.35,7996.39"/>
    </edge>
    <edge id=":3_18" function="internal">
        <lane id=":3_18_0" index="0" speed="13.89" length="2.63" shape="10503.00,7998.59 10502.82,7998.46 10502.79,7997.54 10503.48,7996.22"/>
    </edge>
    <edge id=":3_8" function="internal">
        <lane id=":3_8_0" index="0" speed="14.45" length="5.04" shape="10499.30,7994.91 10500.09,7996.05 10501.05,7996.65 10502.18,7996.71 10503.48,7996.22"/>
    </edge>
    <edge id=":3_9" function="internal">
        <lane id=":3_9_0" index="0" speed="14.45" length="9.89" shape="10499.30,7994.91 10503.76,8003.73"/>
    </edge>
    <edge id=":3_10" function="internal">
        <lane id=":3_10_0" index="0" speed="15.00" length="10.67" shape="10499.30,7994.91 10500.20,7997.62 10500.05,8000.05 10498.85,8002.19 10496.60,8004.06"/>
    </edge>
    <edge id=":3_11" function="internal">
        <lane id=":3_11_0" index="0" speed="15.00" length="4.82" shape="10499.30,7994.91 10499.12,7996.39 10498.56,7997.12 10497.64,7997.12 10496.35,7996.39"/>
    </edge>
    <edge id=":3_12" function="internal">
        <lane id=":3_12_0" index="0" speed="15.00" length="5.70" shape="10494.85,8001.26 10496.07,8000.25 10496.73,7999.11 10496.82,7997.82 10496.35,7996.39"/>
    </edge>
    <edge id=":3_13" function="internal">
        <lane id=":3_13_0" index="0" speed="14.45" length="9.99" shape="10494.85,8001.26 10503.48,7996.22"/>
    </edge>
    <edge id=":3_14" function="internal">
        <lane id=":3_14_0" index="0" speed="14.45" length="10.76" shape="10494.85,8001.26 10497.58,8000.06 10499.98,8000.07 10502.04,8001.30 10503.76,8003.73"/>
    </edge>
    <edge id=":3_15" function="internal">
        <lane id=":3_15_0" index="0" speed="15.00" length="4.82" shape="10494.85,8001.26 10496.34,8001.31 10497.13,8001.79 10497.21,8002.71 10496.60,8004.06"/>
    </edge>
    <edge id=":4_0" function="internal">
        <lane id=":4_0_0" index="0" speed="14.45" length="15.36" shape="5998.35,6007.36 5998.49,6003.56 5998.91,5999.71 5999.59,5995.89 6000.50,5992.19"/>
    </edge>
    <edge id=":4_1" function="internal">
        <lane id=":4_1_0" index="0" speed="15.00" length="15.85" shape="5998.35,6007.36 5998.92,6003.43 6000.63,6000.19 6003.47,5997.64 6007.45,5995.78"/>
    </edge>
    <edge id=":4_2" function="internal">
        <lane id=":4_2_0" index="0" speed="14.45" length="14.65" shape="5998.35,6007.36 5998.95,6003.21 6000.76,6001.12 6003.78,6001.06 6008.01,6003.05"/>
    </edge>
    <edge id=":4_3" function="internal">
        <lane id=":4_3_0" index="0" speed="15.00" length="4.82" shape="5998.35,6007.36 5999.17,6006.12 6000.00,6005.71 6000.82,6006.12 6001.65,6007.36"/>
    </edge>
    <edge id=":4_4" function="internal">
        <lane id=":4_4_0" index="0" speed="14.45" length="6.65" shape="6006.26,6005.85 6004.24,6004.87 6002.80,6004.79 6001.94,6005.62 6001.65,6007.36"/>
    </edge>
    <edge id=":4_5" function="internal">
        <lane id=":4_5_0" index="0" speed="13.89" length="16.04" shape="6006.26,6005.85 6002.83,6003.08 6000.73,5999.88 5999.95,5996.25 6000.50,5992.19"/>
    </edge>
    <edge id=":4_6" function="internal">
        <lane id=":4_6_0" index="0" speed="14.45" length="9.07" shape="6006.26,6005.85 6002.54,6002.86 6001.50,6000.18 6002.32,5999.00"/>
    </edge>
    <edge id=":4_7" function="internal">
        <lane id=":4_7_0" index="0" speed="13.89" length="2.66" shape="6006.26,6005.85 6005.65,6004.50 6005.73,6003.58 6005.94,6003.45"/>
    </edge>
    <edge id=":4_16" function="internal">
        <lane id=":4_16_0" index="0" speed="14.45" length="6.22" shape="6002.32,5999.00 6003.14,5997.82 6007.45,5995.78"/>
    </edge>
    <edge id=":4_17" function="internal">
        <lane id=":4_17_0" index="0" speed="13.89" length="2.16" shape="6005.94,6003.45 6006.52,6003.10 6008.01,6003.05"/>
    </edge>
    <edge id=":4_8" function="internal">
        <lane id=":4_8_0" index="0" speed="14.45" length="6.29" shape="6008.50,5998.91 6006.72,5999.75 6006.05,6000.72 6006.48,6001.82 6008.01,6003.05"/>
    </edge>
    <edge id=":4_9" function="internal">
        <lane id=":4_9_0" index="0" speed="15.00" length="11.70" shape="6008.50,5998.91 6005.50,6000.29 6003.36,6002.16 6002.08,6004.52 6001.65,6007.36"/>
    </edge>
    <edge id=":4_10" function="internal">
        <lane id=":4_10_0" index="0" speed="14.45" length="14.81" shape="6008.50,5998.91 6003.90,5999.85 6001.03,5999.05 5999.90,5996.50 6000.50,5992.19"/>
    </edge>
    <edge id=":4_11" function="internal">
        <lane id=":4_11_0" index="0" speed="15.00" length="4.82" shape="6008.50,5998.91 6007.06,5998.52 6006.41,5997.86 6006.54,5996.95 6007.45,5995.78"/>
    </edge>
    <edge id=":4_12" function="internal">
        <lane id=":4_12_0" index="0" speed="14.45" length="6.53" shape="6003.67,5993.09 6003.45,5994.89 6004.00,5995.94 6005.34,5996.24 6007.45,5995.78"/>
    </edge>
    <edge id=":4_13" function="internal">
        <lane id=":4_13_0" index="0" speed="13.89" length="11.75" shape="6003.67,5993.09 6003.29,5996.03 6003.88,5998.66 6005.46,6001.01 6008.01,6003.05"/>
    </edge>
    <edge id=":4_14" function="internal">
        <lane id=":4_14_0" index="0" speed="14.45" length="14.45" shape="6003.67,5993.09 6002.78,5996.65 6002.15,6000.16 6001.77,6003.70 6001.65,6007.36"/>
    </edge>
    <edge id=":4_15" function="internal">
        <lane id=":4_15_0" index="0" speed="13.89" length="2.20" shape="6003.67,5993.09 6002.54,5994.06 6001.84,5994.19"/>
    </edge>
    <edge id=":4_18" function="internal">
        <lane id=":4_18_0" index="0" speed="13.89" length="2.62" shape="6001.84,5994.19 6001.63,5994.23 6000.95,5993.61 6000.50,5992.19"/>
    </edge>
    <edge id=":5_0" function="internal">
        <lane id=":5_0_0" index="0" speed="15.00" length="5.00" shape="3498.35,1304.75 3498.16,1303.39 3497.57,1302.43 3496.61,1301.84 3495.25,1301.65"/>
    </edge>
    <edge id=":5_1" function="internal">
        <lane id=":5_1_0" index="0" speed="14.45" length="9.75" shape="3498.35,1304.75 3498.60,1295.00"/>
    </edge>
    <edge id=":5_2" function="internal">
        <lane id=":5_2_0" index="0" speed="15.00" length="5.39" shape="3498.35,1304.75 3498.76,1301.95 3499.99,1299.95 3500.18,1299.84"/>
    </edge>
    <edge id=":5_3" function="internal">
        <lane id=":5_3_0" index="0" speed="15.00" length="2.51" shape="3498.35,1304.75 3499.17,1303.51 3500.00,1303.10 3500.09,1303.15"/>
    </edge>
    <edge id=":5_16" function="internal">
        <lane id=":5_16_0" index="0" speed="15.00" length="5.07" shape="3500.18,1299.84 3502.04,1298.75 3504.92,1298.35"/>
    </edge>
    <edge id=":5_17" function="internal">
        <lane id=":5_17_0" index="0" speed="15.00" length="2.31" shape="3500.09,1303.15 3500.82,1303.51 3501.65,1304.75"/>
    </edge>
    <edge id=":5_4" function="internal">
        <lane id=":5_4_0" index="0" speed="15.00" length="5.14" shape="3504.92,1301.65 3503.49,1301.84 3502.47,1302.43 3501.85,1303.39 3501.65,1304.75"/>
    </edge>
    <edge id=":5_5" function="internal">
        <lane id=":5_5_0" index="0" speed="15.00" length="9.67" shape="3504.92,1301.65 3495.25,1301.65"/>
    </edge>
    <edge id=":5_6" function="internal">
        <lane id=":5_6_0" index="0" speed="14.45" length="10.58" shape="3504.92,1301.65 3502.03,1301.23 3500.01,1299.99 3498.87,1297.91 3498.60,1295.00"/>
    </edge>
    <edge id=":5_7" function="internal">
        <lane id=":5_7_0" index="0" speed="15.00" length="4.82" shape="3504.92,1301.65 3503.68,1300.82 3503.27,1300.00 3503.68,1299.17 3504.92,1298.35"/>
    </edge>
    <edge id=":5_8" function="internal">
        <lane id=":5_8_0" index="0" speed="14.45" length="5.06" shape="3501.90,1295.17 3502.03,1296.56 3502.57,1297.56 3503.54,1298.15 3504.92,1298.35"/>
    </edge>
    <edge id=":5_9" function="internal">
        <lane id=":5_9_0" index="0" speed="14.45" length="9.58" shape="3501.90,1295.17 3501.65,1304.75"/>
    </edge>
    <edge id=":5_10" function="internal">
        <lane id=":5_10_0" index="0" speed="14.45" length="5.28" shape="3501.90,1295.17 3501.36,1298.01 3500.07,1300.03"/>
    </edge>
    <edge id=":5_11" function="internal">
        <lane id=":5_11_0" index="0" speed="13.89" length="2.41" shape="3501.90,1295.17 3501.01,1296.37 3500.17,1296.74"/>
    </edge>
    <edge id=":5_18" function="internal">
        <lane id=":5_18_0" index="0" speed="14.45" length="5.19" shape="3500.07,1300.03 3498.03,1301.25 3495.25,1301.65"/>
    </edge>
    <edge id=":5_19" function="internal">
        <lane id=":5_19_0" index="0" speed="13.89" length="2.41" shape="3500.17,1296.74 3499.36,1296.28 3498.60,1295.00"/>
    </edge>
    <edge id=":5_12" function="internal">
        <lane id=":5_12_0" index="0" speed="14.45" length="5.34" shape="3495.25,1298.35 3496.65,1298.14 3497.68,1297.51 3498.33,1296.47 3498.60,1295.00"/>
    </edge>