<?xml version="1.0" encoding="UTF-8"?>

<!-- generated on Mon Mar  4 21:58:16 2019 by SUMO duarouter Version 0.32.0
<?xml version="1.0" encoding="UTF-8"?>

<configuration xmlns:xsi="http://www.w3.org/2001/XMLSchema-instance" xsi:noNamespaceSchemaLocation="http://sumo.dlr.de/xsd/duarouterConfiguration.xsd">

    <input>
        <net-file value="ex2.net.xml"/>
        <additional-files value="modelo.add.xml"/>
        <route-files value="trips.trips.xml"/>
    </input>

    <output>
        <output-file value="ex2.rou.xml"/>
        <alternatives-output value="ex2.rou.alt.xml"/>
    </output>

    <processing>
        <ignore-errors value="true"/>
    </processing>

    <time>
        <begin value="0.0"/>
        <end value="50.0"/>
    </time>

    <report>
        <no-warnings value="true"/>
        <no-step-log value="true"/>
    </report>

</configuration>
-->

<routes xmlns:xsi="http://www.w3.org/2001/XMLSchema-instance" xsi:noNamespaceSchemaLocation="http://sumo.dlr.de/xsd/routes_file.xsd">
 <vType id="bus" vClass="bus"/> 
   <vehicle id="0" type="bus" depart="0.00">
        <route edges="gneE40"/>
 		<stop lane="gneE40_0" endPos="32" duration="7200"/>
    </vehicle>
    <vehicle id="1" type="bus" depart="0.00">
        <route edges="-gneE0 E9_2 E10_1 gneE29 -gneE29 E10_2 E9_1 gneE0 -gneE0 E9_2 E10_1 gneE29 -gneE29 E10_2 E9_1 gneE0 -gneE0 E9_2 E10_1 gneE29 -gneE29 E10_2 E9_1 gneE0 -gneE0 E9_2 E10_1 gneE29 -gneE29 E10_2 E9_1 gneE0"/>
 		<stop lane="E9_2_0" endPos="14" duration="10"/>
		<stop lane="E10_1_0" endPos="14" duration="20"/>
		<stop lane="gneE29_0" endPos="14" duration="20"/>
		<stop lane="E10_2_0" endPos="14" duration="100.47"/>
		<stop lane="E9_1_0" endPos="14" duration="20"/>
		<stop lane="gneE0_0" endPos="14" duration="104.47"/>
 		<stop lane="E9_2_0" endPos="14" duration="10"/>
		<stop lane="E10_1_0" endPos="14" duration="20"/>
		<stop lane="gneE29_0" endPos="14" duration="20"/>
		<stop lane="E10_2_0" endPos="14" duration="100.47"/>
		<stop lane="E9_1_0" endPos="14" duration="20"/>
		<stop lane="gneE0_0" endPos="14" duration="104.47"/>
 		<stop lane="E9_2_0" endPos="14" duration="10"/>
		<stop lane="E10_1_0" endPos="14" duration="20"/>
		<stop lane="gneE29_0" endPos="14" duration="20"/>
		<stop lane="E10_2_0" endPos="14" duration="100.47"/>
		<stop lane="E9_1_0" endPos="14" duration="20"/>
		<stop lane="gneE0_0" endPos="14" duration="104.47"/>
 		<stop lane="E9_2_0" endPos="14" duration="10"/>
		<stop lane="E10_1_0" endPos="14" duration="20"/>
		<stop lane="gneE29_0" endPos="14" duration="20"/>
		<stop lane="E10_2_0" endPos="14" duration="100.47"/>
		<stop lane="E9_1_0" endPos="14" duration="20"/>
		<stop lane="gneE0_0" endPos="14" duration="104.47"/>
    </vehicle>
    <vehicle id="2" type="bus" depart="0.00">
        <route edges="-gneE29 E10_2 E9_1 gneE0 -gneE0 E9_2 E10_1 gneE29 -gneE29 E10_2 E9_1 gneE0 -gneE0 E9_2 E10_1 gneE29 -gneE29 E10_2 E9_1 gneE0 -gneE0 E9_2 E10_1 gneE29 -gneE29 E10_2 E9_1 gneE0 -gneE0 E9_2 E10_1 gneE29"/>
		<stop lane="E10_2_0" endPos="14" duration="100.47"/>
		<stop lane="E9_1_0" endPos="14" duration="20"/>
		<stop lane="gneE0_0" endPos="14" duration="104.47"/>
 		<stop lane="E9_2_0" endPos="14" duration="10"/>
		<stop lane="E10_1_0" endPos="14" duration="20"/>
		<stop lane="gneE29_0" endPos="14" duration="20"/>
		<stop lane="E10_2_0" endPos="14" duration="100.47"/>
		<stop lane="E9_1_0" endPos="14" duration="20"/>
		<stop lane="gneE0_0" endPos="14" duration="104.47"/>
 		<stop lane="E9_2_0" endPos="14" duration="10"/>
		<stop lane="E10_1_0" endPos="14" duration="20"/>
		<stop lane="gneE29_0" endPos="14" duration="20"/>
		<stop lane="E10_2_0" endPos="14" duration="100.47"/>
		<stop lane="E9_1_0" endPos="14" duration="20"/>
		<stop lane="gneE0_0" endPos="14" duration="104.47"/>
 		<stop lane="E9_2_0" endPos="14" duration="10"/>
		<stop lane="E10_1_0" endPos="14" duration="20"/>
		<stop lane="gneE29_0" endPos="14" duration="20"/>
		<stop lane="E10_2_0" endPos="14" duration="100.47"/>
		<stop lane="E9_1_0" endPos="14" duration="20"/>
		<stop lane="gneE0_0" endPos="14" duration="104.47"/>
 		<stop lane="E9_2_0" endPos="14" duration="10"/>
		<stop lane="E10_1_0" endPos="14" duration="20"/>
		<stop lane="gneE29_0" endPos="14" duration="20"/>		
    </vehicle>
    <vehicle id="5" type="bus" depart="0.00">
        <route edges="-gneE7 E1_1 gneE32 -gneE32 E1_2 gneE7 -gneE7 E1_1 gneE32 -gneE32 E1_2 gneE7 -gneE7 E1_1 gneE32 -gneE32 E1_2 gneE7 -gneE7 E1_1 gneE32 -gneE32 E1_2 gneE7 -gneE7 E1_1 gneE32 -gneE32 E1_2 gneE7 -gneE7 E1_1 gneE32 -gneE32 E1_2 gneE7"/>
 		<stop lane="E1_1_0" endPos="14" duration="11.8"/>
 		<stop lane="gneE32_0" endPos="14" duration="12.3"/>
 		<stop lane="E1_1_0" endPos="14" duration="11.8"/>
 		<stop lane="gneE32_0" endPos="14" duration="12.3"/>
 		<stop lane="E1_1_0" endPos="14" duration="11.8"/>
 		<stop lane="gneE32_0" endPos="14" duration="12.3"/>
 		<stop lane="E1_1_0" endPos="14" duration="11.8"/>
 		<stop lane="gneE32_0" endPos="14" duration="12.3"/>
 		<stop lane="E1_1_0" endPos="14" duration="11.8"/>
 		<stop lane="gneE32_0" endPos="14" duration="12.3"/>
 		<stop lane="E1_1_0" endPos="14" duration="11.8"/>
 		<stop lane="gneE32_0" endPos="14" duration="12.3"/>
    </vehicle>
    <vehicle id="29" type="bus" depart="0.00">
        <route edges="-gneE23 E12_1 E12_2 gneE23 -gneE23 E12_1 E12_2 gneE23 -gneE23 E12_1 E12_2 gneE23 -gneE23 E12_1 E12_2 gneE23 -gneE23 E12_1 E12_2 gneE23 -gneE23 E12_1 E12_2 gneE23 -gneE23 E12_1 E12_2 gneE23 -gneE23 E12_1 E12_2 gneE23 -gneE23 E12_1 E12_2 gneE23"/>
		<stop lane="E12_1_0" endPos="14" duration="10"/>
		<stop lane="E12_2_0" endPos="14" duration="10"/>
		<stop lane="E12_1_0" endPos="14" duration="10"/>
		<stop lane="E12_2_0" endPos="14" duration="10"/>
		<stop lane="E12_1_0" endPos="14" duration="10"/>
		<stop lane="E12_2_0" endPos="14" duration="10"/>
		<stop lane="E12_1_0" endPos="14" duration="10"/>
		<stop lane="E12_2_0" endPos="14" duration="10"/>
		<stop lane="E12_1_0" endPos="14" duration="10"/>
		<stop lane="E12_2_0" endPos="14" duration="10"/>
		<stop lane="E12_1_0" endPos="14" duration="10"/>
		<stop lane="E12_2_0" endPos="14" duration="10"/>
		<stop lane="E12_1_0" endPos="14" duration="10"/>
		<stop lane="E12_2_0" endPos="14" duration="10"/>
		<stop lane="E12_1_0" endPos="14" duration="10"/>
		<stop lane="E12_2_0" endPos="14" duration="10"/>
		<stop lane="E12_1_0" endPos="14" duration="10"/>
		<stop lane="E12_2_0" endPos="14" duration="10"/>
    </vehicle>
    <vehicle id="30" type="bus" depart="0.00">
        <route edges="E12_2 gneE23 -gneE23 E12_1 E12_2 gneE23 -gneE23 E12_1 E12_2 gneE23 -gneE23 E12_1 E12_2 gneE23 -gneE23 E12_1 E12_2 gneE23 -gneE23 E12_1 E12_2 gneE23 -gneE23 E12_1 E12_2 gneE23 -gneE23 E12_1 E12_2 gneE23 -gneE23 E12_1 E12_2 gneE23 -gneE23 E12_1"/>
		<stop lane="E12_2_0" endPos="14" duration="10"/>
		<stop lane="E12_1_0" endPos="14" duration="10"/>
		<stop lane="E12_2_0" endPos="14" duration="10"/>
		<stop lane="E12_1_0" endPos="14" duration="10"/>
		<stop lane="E12_2_0" endPos="14" duration="10"/>
		<stop lane="E12_1_0" endPos="14" duration="10"/>
		<stop lane="E12_2_0" endPos="14" duration="10"/>
		<stop lane="E12_1_0" endPos="14" duration="10"/>
		<stop lane="E12_2_0" endPos="14" duration="10"/>
		<stop lane="E12_1_0" endPos="14" duration="10"/>
		<stop lane="E12_2_0" endPos="14" duration="10"/>
		<stop lane="E12_1_0" endPos="14" duration="10"/>
		<stop lane="E12_2_0" endPos="14" duration="10"/>
		<stop lane="E12_1_0" endPos="14" duration="10"/>
		<stop lane="E12_2_0" endPos="14" duration="10"/>
		<stop lane="E12_1_0" endPos="14" duration="10"/>
		<stop lane="E12_2_0" endPos="14" duration="10"/>
		<stop lane="E12_1_0" endPos="14" duration="10"/>
    </vehicle>
    <vehicle id="10" type="bus" depart="12.00">
        <route edges="-gneE14 E3_2 gneE33 -gneE33 E3_1 gneE14 -gneE14 E3_2 gneE33 -gneE33 E3_1 gneE14 -gneE14 E3_2 gneE33 -gneE33 E3_1 gneE14 -gneE14 E3_2 gneE33 -gneE33 E3_1 gneE14 -gneE14 E3_2 gneE33 -gneE33 E3_1 gneE14 -gneE14 E3_2 gneE33 -gneE33 E3_1 gneE14"/>
		<stop lane="E3_2_0" endPos="14" duration="16"/>
		<stop lane="gneE33_0" endPos="14" duration="20"/>
		<stop lane="gneE14_0" endPos="14" duration="10.39"/>
		<stop lane="E3_2_0" endPos="14" duration="16"/>
		<stop lane="gneE33_0" endPos="14" duration="20"/>
		<stop lane="gneE14_0" endPos="14" duration="10.39"/>
		<stop lane="E3_2_0" endPos="14" duration="16"/>
		<stop lane="gneE33_0" endPos="14" duration="20"/>
		<stop lane="gneE14_0" endPos="14" duration="10.39"/>
		<stop lane="E3_2_0" endPos="14" duration="16"/>
		<stop lane="gneE33_0" endPos="14" duration="20"/>
		<stop lane="gneE14_0" endPos="14" duration="10.39"/>
		<stop lane="E3_2_0" endPos="14" duration="16"/>
		<stop lane="gneE33_0" endPos="14" duration="20"/>
		<stop lane="gneE14_0" endPos="14" duration="10.39"/>
		<stop lane="E3_2_0" endPos="14" duration="16"/>
		<stop lane="gneE33_0" endPos="14" duration="20"/>
		<stop lane="gneE14_0" endPos="14" duration="10.39"/>
    </vehicle>
   <vehicle id="31" type="bus" depart="45.00">
        <route edges="-gneE35 E13_2 gneE21 -gneE21 E13_1 gneE35 -gneE35 E13_2 gneE21 -gneE21 E13_1 gneE35 -gneE35 E13_2 gneE21 -gneE21 E13_1 gneE35 -gneE35 E13_2 gneE21 -gneE21 E13_1 gneE35 -gneE35 E13_2 gneE21 -gneE21 E13_1 gneE35 -gneE35 E13_2 gneE21 -gneE21 E13_1 gneE35"/>
		<stop lane="E13_2_0" endPos="14" duration="10"/>
		<stop lane="gneE21_0" endPos="14" duration="270"/>
		<stop lane="E13_2_0" endPos="14" duration="10"/>
		<stop lane="gneE21_0" endPos="14" duration="270"/>
		<stop lane="E13_2_0" endPos="14" duration="10"/>
		<stop lane="gneE21_0" endPos="14" duration="270"/>
		<stop lane="E13_2_0" endPos="14" duration="10"/>
		<stop lane="gneE21_0" endPos="14" duration="270"/>
		<stop lane="E13_2_0" endPos="14" duration="10"/>
		<stop lane="gneE21_0" endPos="14" duration="270"/>
		<stop lane="E13_2_0" endPos="14" duration="10"/>
		<stop lane="gneE21_0" endPos="14" duration="270"/>
    </vehicle>
    <vehicle id="8" type="bus" depart="74.00">
        <route edges="E2_1 gneE31 -gneE31 E2_2 E2_1 gneE31 -gneE31 E2_2 E2_1 gneE31 -gneE31 E2_2 E2_1 gneE31 -gneE31 E2_2 E2_1 gneE31 -gneE31 E2_2 E2_1 gneE31 -gneE31 E2_2 E2_1 gneE31 -gneE31 E2_2 E2_1 gneE31 -gneE31 E2_2"/>
		<stop lane="E2_1_0" endPos="14" duration="13"/>
		<stop lane="gneE31_0" endPos="14" duration="13"/>
		<stop lane="E2_1_0" endPos="14" duration="13"/>
		<stop lane="gneE31_0" endPos="14" duration="13"/>
		<stop lane="E2_1_0" endPos="14" duration="13"/>
		<stop lane="gneE31_0" endPos="14" duration="13"/>
		<stop lane="E2_1_0" endPos="14" duration="13"/>
		<stop lane="gneE31_0" endPos="14" duration="13"/>
		<stop lane="E2_1_0" endPos="14" duration="13"/>
		<stop lane="gneE31_0" endPos="14" duration="13"/>
		<stop lane="E2_1_0" endPos="14" duration="13"/>
		<stop lane="gneE31_0" endPos="14" duration="13"/>
		<stop lane="E2_1_0" endPos="14" duration="13"/>
		<stop lane="gneE31_0" endPos="14" duration="13"/>
		<stop lane="E2_1_0" endPos="14" duration="13"/>
		<stop lane="gneE31_0" endPos="14" duration="13"/>
    </vehicle>
    <vehicle id="9" type="bus" depart="74.00">
        <route edges="-gneE31 E2_2 E2_1 gneE31 -gneE31 E2_2 E2_1 gneE31 -gneE31 E2_2 E2_1 gneE31 -gneE31 E2_2 E2_1 gneE31 -gneE31 E2_2 E2_1 gneE31 -gneE31 E2_2 E2_1 gneE31 -gneE31 E2_2 E2_1 gneE31 -gneE31 E2_2 E2_1 gneE31"/>
		<stop lane="E2_1_0" endPos="14" duration="13"/>
		<stop lane="gneE31_0" endPos="14" duration="13"/>
		<stop lane="E2_1_0" endPos="14" duration="13"/>
		<stop lane="gneE31_0" endPos="14" duration="13"/>
		<stop lane="E2_1_0" endPos="14" duration="13"/>
		<stop lane="gneE31_0" endPos="14" duration="13"/>
		<stop lane="E2_1_0" endPos="14" duration="13"/>
		<stop lane="gneE31_0" endPos="14" duration="13"/>
		<stop lane="E2_1_0" endPos="14" duration="13"/>
		<stop lane="gneE31_0" endPos="14" duration="13"/>
		<stop lane="E2_1_0" endPos="14" duration="13"/>
		<stop lane="gneE31_0" endPos="14" duration="13"/>
		<stop lane="E2_1_0" endPos="14" duration="13"/>
		<stop lane="gneE31_0" endPos="14" duration="13"/>
		<stop lane="E2_1_0" endPos="14" duration="13"/>
		<stop lane="gneE31_0" endPos="14" duration="13"/>
    </vehicle>
    <vehicle id="19" type="bus" depart="106.00">
        <route edges="-gneE39 E6_1 E6_2 gneE39 -gneE39 E6_1 E6_2 gneE39 -gneE39 E6_1 E6_2 gneE39 -gneE39 E6_1 E6_2 gneE39 -gneE39 E6_1 E6_2 gneE39 -gneE39 E6_1 E6_2 gneE39 -gneE39 E6_1 E6_2 gneE39 -gneE39 E6_1 E6_2 gneE39"/>
		<stop lane="E6_1_0" endPos="14" duration="20"/>
		<stop lane="E6_2_0" endPos="14" duration="28"/>
		<stop lane="gneE39_0" endPos="14" duration="21"/>
		<stop lane="E6_1_0" endPos="14" duration="20"/>
		<stop lane="E6_2_0" endPos="14" duration="28"/>
		<stop lane="gneE39_0" endPos="14" duration="21"/>
		<stop lane="E6_1_0" endPos="14" duration="20"/>
		<stop lane="E6_2_0" endPos="14" duration="28"/>
		<stop lane="gneE39_0" endPos="14" duration="21"/>
		<stop lane="E6_1_0" endPos="14" duration="20"/>
		<stop lane="E6_2_0" endPos="14" duration="28"/>
		<stop lane="gneE39_0" endPos="14" duration="21"/>
		<stop lane="E6_1_0" endPos="14" duration="20"/>
		<stop lane="E6_2_0" endPos="14" duration="28"/>
		<stop lane="gneE39_0" endPos="14" duration="21"/>
		<stop lane="E6_1_0" endPos="14" duration="20"/>
		<stop lane="E6_2_0" endPos="14" duration="28"/>
		<stop lane="gneE39_0" endPos="14" duration="21"/>
		<stop lane="E6_1_0" endPos="14" duration="20"/>
		<stop lane="E6_2_0" endPos="14" duration="28"/>
		<stop lane="gneE39_0" endPos="14" duration="21"/>
		<stop lane="E6_1_0" endPos="14" duration="20"/>
		<stop lane="E6_2_0" endPos="14" duration="28"/>
		<stop lane="gneE39_0" endPos="14" duration="21"/>
    </vehicle>
    <vehicle id="20" type="bus" depart="106.00">
        <route edges="E6_2 gneE39 -gneE39 E6_1 E6_2 gneE39 -gneE39 E6_1 E6_2 gneE39 -gneE39 E6_1 E6_2 gneE39 -gneE39 E6_1 E6_2 gneE39 -gneE39 E6_1 E6_2 gneE39 -gneE39 E6_1 E6_2 gneE39 -gneE39 E6_1 E6_2 gneE39 -gneE39 E6_1"/>
		<stop lane="E6_2_0" endPos="14" duration="28"/>
		<stop lane="gneE39_0" endPos="14" duration="21"/>
		<stop lane="E6_1_0" endPos="14" duration="20"/>
		<stop lane="E6_2_0" endPos="14" duration="28"/>
		<stop lane="gneE39_0" endPos="14" duration="21"/>
		<stop lane="E6_1_0" endPos="14" duration="20"/>
		<stop lane="E6_2_0" endPos="14" duration="28"/>
		<stop lane="gneE39_0" endPos="14" duration="21"/>
		<stop lane="E6_1_0" endPos="14" duration="20"/>
		<stop lane="E6_2_0" endPos="14" duration="28"/>
		<stop lane="gneE39_0" endPos="14" duration="21"/>
		<stop lane="E6_1_0" endPos="14" duration="20"/>
		<stop lane="E6_2_0" endPos="14" duration="28"/>
		<stop lane="gneE39_0" endPos="14" duration="21"/>
		<stop lane="E6_1_0" endPos="14" duration="20"/>
		<stop lane="E6_2_0" endPos="14" duration="28"/>
		<stop lane="gneE39_0" endPos="14" duration="21"/>
		<stop lane="E6_1_0" endPos="14" duration="20"/>
		<stop lane="E6_2_0" endPos="14" duration="28"/>
		<stop lane="gneE39_0" endPos="14" duration="21"/>
		<stop lane="E6_1_0" endPos="14" duration="20"/>
		<stop lane="E6_2_0" endPos="14" duration="28"/>
		<stop lane="gneE39_0" endPos="14" duration="21"/>
		<stop lane="E6_1_0" endPos="14" duration="20"/>
    </vehicle>
 
    <vehicle id="24" type="bus" depart="106.00">
        <route edges=" E8_2 E8_1 E8_2 E8_1 E8_2 E8_1 E8_2 E8_1 E8_2 E8_1 E8_2 E8_1 E8_2 E8_1 E8_2 E8_1 E8_2 E8_1 E8_2 E8_1 E8_2 E8_1 E8_2 E8_1 E8_2 E8_1 E8_2 E8_1 E8_2 E8_1 E8_2 E8_1 E8_2 E8_1 E8_2 E8_1 E8_2 E8_1 E8_2 E8_1"/>
		<stop lane="E8_2_0" endPos="14" duration="132"/>
		<stop lane="E8_1_0" endPos="14" duration="132"/>
		<stop lane="E8_2_0" endPos="14" duration="132"/>
		<stop lane="E8_1_0" endPos="14" duration="132"/>
		<stop lane="E8_2_0" endPos="14" duration="132"/>
		<stop lane="E8_1_0" endPos="14" duration="132"/>
		<stop lane="E8_2_0" endPos="14" duration="132"/>
		<stop lane="E8_1_0" endPos="14" duration="132"/>
		<stop lane="E8_2_0" endPos="14" duration="132"/>
		<stop lane="E8_1_0" endPos="14" duration="132"/>
		<stop lane="E8_2_0" endPos="14" duration="132"/>
		<stop lane="E8_1_0" endPos="14" duration="132"/>
		<stop lane="E8_2_0" endPos="14" duration="132"/>
		<stop lane="E8_1_0" endPos="14" duration="132"/>
		<stop lane="E8_2_0" endPos="14" duration="132"/>
		<stop lane="E8_1_0" endPos="14" duration="132"/>
		<stop lane="E8_2_0" endPos="14" duration="132"/>
		<stop lane="E8_1_0" endPos="14" duration="132"/>
		<stop lane="E8_2_0" endPos="14" duration="132"/>
		<stop lane="E8_1_0" endPos="14" duration="132"/>
		<stop lane="E8_2_0" endPos="14" duration="132"/>
		<stop lane="E8_1_0" endPos="14" duration="132"/>
		<stop lane="E8_2_0" endPos="14" duration="132"/>
		<stop lane="E8_1_0" endPos="14" duration="132"/>
    </vehicle>
    <vehicle id="25" type="bus" depart="106.00">
        <route edges="E8_1 E8_2 E8_1 E8_2 E8_1 E8_2 E8_1 E8_2 E8_1 E8_2 E8_1 E8_2 E8_1 E8_2 E8_1 E8_2 E8_1 E8_2 E8_1 E8_2 E8_1 E8_2 E8_1 E8_2 E8_1 E8_2 E8_1 E8_2 E8_1 E8_2 E8_1 E8_2 E8_1 E8_2 E8_1 E8_2 E8_1 E8_2 E8_1 E8_2"/>
		<stop lane="E8_1_0" endPos="14" duration="132"/>
		<stop lane="E8_2_0" endPos="14" duration="132"/>
		<stop lane="E8_1_0" endPos="14" duration="132"/>
		<stop lane="E8_2_0" endPos="14" duration="132"/>
		<stop lane="E8_1_0" endPos="14" duration="132"/>
		<stop lane="E8_2_0" endPos="14" duration="132"/>
		<stop lane="E8_1_0" endPos="14" duration="132"/>
		<stop lane="E8_2_0" endPos="14" duration="132"/>
		<stop lane="E8_1_0" endPos="14" duration="132"/>
		<stop lane="E8_2_0" endPos="14" duration="132"/>
		<stop lane="E8_1_0" endPos="14" duration="132"/>
		<stop lane="E8_2_0" endPos="14" duration="132"/>
		<stop lane="E8_1_0" endPos="14" duration="132"/>
		<stop lane="E8_2_0" endPos="14" duration="132"/>
		<stop lane="E8_1_0" endPos="14" duration="132"/>
		<stop lane="E8_2_0" endPos="14" duration="132"/>
		<stop lane="E8_1_0" endPos="14" duration="132"/>
		<stop lane="E8_2_0" endPos="14" duration="132"/>
		<stop lane="E8_1_0" endPos="14" duration="132"/>
		<stop lane="E8_2_0" endPos="14" duration="132"/>
		<stop lane="E8_1_0" endPos="14" duration="132"/>
		<stop lane="E8_2_0" endPos="14" duration="132"/>
		<stop lane="E8_1_0" endPos="14" duration="132"/>
		<stop lane="E8_2_0" endPos="14" duration="132"/>
    </vehicle>
    <vehicle id="26" type="bus" depart="136.00">
        <route edges="E11_2 gneE28 -gneE28 E11_1 E11_2 gneE28 -gneE28 E11_1 E11_2 gneE28 -gneE28 E11_1 E11_2 gneE28 -gneE28 E11_1 E11_2 gneE28 -gneE28 E11_1 E11_2 gneE28 -gneE28 E11_1 E11_2 gneE28 -gneE28 E11_1 E11_2 gneE28 -gneE28 E11_1"/>
		<stop lane="E11_2_0" endPos="14" duration="5"/> 
		<stop lane="E11_1_0" endPos="14" duration="30"/>
		<stop lane="E11_2_0" endPos="14" duration="5"/> 
		<stop lane="E11_1_0" endPos="14" duration="30"/>	
		<stop lane="E11_2_0" endPos="14" duration="5"/> 
		<stop lane="E11_1_0" endPos="14" duration="30"/>	
		<stop lane="E11_2_0" endPos="14" duration="5"/> 
		<stop lane="E11_1_0" endPos="14" duration="30"/>	
		<stop lane="E11_2_0" endPos="14" duration="5"/> 
		<stop lane="E11_1_0" endPos="14" duration="30"/>	
		<stop lane="E11_2_0" endPos="14" duration="5"/> 
		<stop lane="E11_1_0" endPos="14" duration="30"/>	
		<stop lane="E11_2_0" endPos="14" duration="5"/> 
		<stop lane="E11_1_0" endPos="14" duration="30"/>	
		<stop lane="E11_2_0" endPos="14" duration="5"/> 
		<stop lane="E11_1_0" endPos="14" duration="30"/>	
    </vehicle>
    <vehicle id="16" type="bus" depart="188.00">
        <route edges="-gneE30 E4_1 E4_2 gneE30 -gneE30 E4_1 E4_2 gneE30 -gneE30 E4_1 E4_2 gneE30 -gneE30 E4_1 E4_2 gneE30 -gneE30 E4_1 E4_2 gneE30 -gneE30 E4_1 E4_2 gneE30 -gneE30 E4_1 E4_2 gneE30 -gneE30 E4_1 E4_2 gneE30"/>
		<stop lane="E4_1_0" endPos="14" duration="70"/> 
		<stop lane="E4_2_0" endPos="14" duration="10.61"/>		
		<stop lane="gneE30_0" endPos="14" duration="53"/>
		<stop lane="E4_1_0" endPos="14" duration="70"/> 
		<stop lane="E4_2_0" endPos="14" duration="10.61"/>		
		<stop lane="gneE30_0" endPos="14" duration="53"/>
		<stop lane="E4_1_0" endPos="14" duration="70"/> 
		<stop lane="E4_2_0" endPos="14" duration="10.61"/>		
		<stop lane="gneE30_0" endPos="14" duration="53"/>
		<stop lane="E4_1_0" endPos="14" duration="70"/> 
		<stop lane="E4_2_0" endPos="14" duration="10.61"/>		
		<stop lane="gneE30_0" endPos="14" duration="53"/>
		<stop lane="E4_1_0" endPos="14" duration="70"/> 
		<stop lane="E4_2_0" endPos="14" duration="10.61"/>		
		<stop lane="gneE30_0" endPos="14" duration="53"/>
		<stop lane="E4_1_0" endPos="14" duration="70"/> 
		<stop lane="E4_2_0" endPos="14" duration="10.61"/>		
		<stop lane="gneE30_0" endPos="14" duration="53"/>
		<stop lane="E4_1_0" endPos="14" duration="70"/> 
		<stop lane="E4_2_0" endPos="14" duration="10.61"/>		
		<stop lane="gneE30_0" endPos="14" duration="53"/>
		<stop lane="E4_1_0" endPos="14" duration="70"/> 
		<stop lane="E4_2_0" endPos="14" duration="10.61"/>		
		<stop lane="gneE30_0" endPos="14" duration="53"/>
    </vehicle>
    <vehicle id="13" type="bus" depart="233.00">
        <route edges="E5_2 gneE12 -gneE12 E5_1 E5_2 gneE12 -gneE12 E5_1 E5_2 gneE12 -gneE12 E5_1 E5_2 gneE12 -gneE12 E5_1 E5_2 gneE12 -gneE12 E5_1 E5_2 gneE12 -gneE12 E5_1 E5_2 gneE12 -gneE12 E5_1 E5_2 gneE12 -gneE12 E5_1"/>
		<stop lane="E5_2_0" endPos="14" duration="10"/> 		
		<stop lane="gneE12_0" endPos="14" duration="74.8"/>
		<stop lane="E5_1_0" endPos="14" duration="80.8"/>
		<stop lane="E5_2_0" endPos="14" duration="10"/> 		
		<stop lane="gneE12_0" endPos="14" duration="74.8"/>
		<stop lane="E5_1_0" endPos="14" duration="80.8"/>
		<stop lane="E5_2_0" endPos="14" duration="10"/> 		
		<stop lane="gneE12_0" endPos="14" duration="74.8"/>
		<stop lane="E5_1_0" endPos="14" duration="80.8"/>
		<stop lane="E5_2_0" endPos="14" duration="10"/> 		
		<stop lane="gneE12_0" endPos="14" duration="74.8"/>
		<stop lane="E5_1_0" endPos="14" duration="80.8"/>
		<stop lane="E5_2_0" endPos="14" duration="10"/> 		
		<stop lane="gneE12_0" endPos="14" duration="74.8"/>
		<stop lane="E5_1_0" endPos="14" duration="80.8"/>
		<stop lane="E5_2_0" endPos="14" duration="10"/> 		
		<stop lane="gneE12_0" endPos="14" duration="74.8"/>
		<stop lane="E5_1_0" endPos="14" duration="80.8"/>
		<stop lane="E5_2_0" endPos="14" duration="10"/> 		
		<stop lane="gneE12_0" endPos="14" duration="74.8"/>
		<stop lane="E5_1_0" endPos="14" duration="80.8"/>
		<stop lane="E5_2_0" endPos="14" duration="10"/> 		
		<stop lane="gneE12_0" endPos="14" duration="74.8"/>
		<stop lane="E5_1_0" endPos="14" duration="80.8"/>
    </vehicle>
    <vehicle id="21" type="bus" depart="306.00">
        <route edges="-gneE34 E7_2 E7_1 gneE34 -gneE34 E7_2 E7_1 gneE34 -gneE34 E7_2 E7_1 gneE34 -gneE34 E7_2 E7_1 gneE34 -gneE34 E7_2 E7_1 gneE34 -gneE34 E7_2 E7_1 gneE34 -gneE34 E7_2 E7_1 gneE34 -gneE34 E7_2 E7_1 gneE34"/>
 		<stop lane="E7_2_0" endPos="14" duration="3"/> 	
 		<stop lane="E7_1_0" endPos="14" duration="15"/>	
 		<stop lane="E7_2_0" endPos="14" duration="3"/> 	
 		<stop lane="E7_1_0" endPos="14" duration="15"/>	
 		<stop lane="E7_2_0" endPos="14" duration="3"/> 	
 		<stop lane="E7_1_0" endPos="14" duration="15"/>	
 		<stop lane="E7_2_0" endPos="14" duration="3"/> 	
 		<stop lane="E7_1_0" endPos="14" duration="15"/>	
 		<stop lane="E7_2_0" endPos="14" duration="3"/> 	
 		<stop lane="E7_1_0" endPos="14" duration="15"/>	
 		<stop lane="E7_2_0" endPos="14" duration="3"/> 	
 		<stop lane="E7_1_0" endPos="14" duration="15"/>	
 		<stop lane="E7_2_0" endPos="14" duration="3"/> 	
 		<stop lane="E7_1_0" endPos="14" duration="15"/>	
 		<stop lane="E7_2_0" endPos="14" duration="3"/> 	
 		<stop lane="E7_1_0" endPos="14" duration="15"/>		
    </vehicle>
    <vehicle id="3" type="bus" depart="390.00">
        <route edges="-gneE0 E9_2 E10_1 gneE29 -gneE29 E10_2 E9_1 gneE0 -gneE0 E9_2 E10_1 gneE29 -gneE29 E10_2 E9_1 gneE0 -gneE0 E9_2 E10_1 gneE29 -gneE29 E10_2 E9_1 gneE0 -gneE0 E9_2 E10_1 gneE29 -gneE29 E10_2 E9_1 gneE0"/>
 		<stop lane="E9_2_0" endPos="14" duration="10"/>
		<stop lane="E10_1_0" endPos="14" duration="20"/>
		<stop lane="gneE29_0" endPos="14" duration="20"/>
		<stop lane="E10_2_0" endPos="14" duration="100.47"/>
		<stop lane="E9_1_0" endPos="14" duration="20"/>
		<stop lane="gneE0_0" endPos="14" duration="104.47"/>
 		<stop lane="E9_2_0" endPos="14" duration="10"/>
		<stop lane="E10_1_0" endPos="14" duration="20"/>
		<stop lane="gneE29_0" endPos="14" duration="20"/>
		<stop lane="E10_2_0" endPos="14" duration="100.47"/>
		<stop lane="E9_1_0" endPos="14" duration="20"/>
		<stop lane="gneE0_0" endPos="14" duration="104.47"/>
 		<stop lane="E9_2_0" endPos="14" duration="10"/>
		<stop lane="E10_1_0" endPos="14" duration="20"/>
		<stop lane="gneE29_0" endPos="14" duration="20"/>
		<stop lane="E10_2_0" endPos="14" duration="100.47"/>
		<stop lane="E9_1_0" endPos="14" duration="20"/>
		<stop lane="gneE0_0" endPos="14" duration="104.47"/>
 		<stop lane="E9_2_0" endPos="14" duration="10"/>
		<stop lane="E10_1_0" endPos="14" duration="20"/>
		<stop lane="gneE29_0" endPos="14" duration="20"/>
		<stop lane="E10_2_0" endPos="14" duration="100.47"/>
		<stop lane="E9_1_0" endPos="14" duration="20"/>
		<stop lane="gneE0_0" endPos="14" duration="104.47"/>
    </vehicle>
    <vehicle id="4" type="bus" depart="390.00">
        <route edges="-gneE29 E10_2 E9_1 gneE0 -gneE0 E9_2 E10_1 gneE29 -gneE29 E10_2 E9_1 gneE0 -gneE0 E9_2 E10_1 gneE29 -gneE29 E10_2 E9_1 gneE0 -gneE0 E9_2 E10_1 gneE29 -gneE29 E10_2 E9_1 gneE0 -gneE0 E9_2 E10_1 gneE29"/>
		<stop lane="E10_2_0" endPos="14" duration="100.47"/>
		<stop lane="E9_1_0" endPos="14" duration="20"/>
		<stop lane="gneE0_0" endPos="14" duration="104.47"/>
 		<stop lane="E9_2_0" endPos="14" duration="10"/>
		<stop lane="E10_1_0" endPos="14" duration="20"/>
		<stop lane="gneE29_0" endPos="14" duration="20"/>
		<stop lane="E10_2_0" endPos="14" duration="100.47"/>
		<stop lane="E9_1_0" endPos="14" duration="20"/>
		<stop lane="gneE0_0" endPos="14" duration="104.47"/>
 		<stop lane="E9_2_0" endPos="14" duration="10"/>
		<stop lane="E10_1_0" endPos="14" duration="20"/>
		<stop lane="gneE29_0" endPos="14" duration="20"/>
		<stop lane="E10_2_0" endPos="14" duration="100.47"/>
		<stop lane="E9_1_0" endPos="14" duration="20"/>
		<stop lane="gneE0_0" endPos="14" duration="104.47"/>
 		<stop lane="E9_2_0" endPos="14" duration="10"/>
		<stop lane="E10_1_0" endPos="14" duration="20"/>
		<stop lane="gneE29_0" endPos="14" duration="20"/>
		<stop lane="E10_2_0" endPos="14" duration="100.47"/>
		<stop lane="E9_1_0" endPos="14" duration="20"/>
		<stop lane="gneE0_0" endPos="14" duration="104.47"/>
 		<stop lane="E9_2_0" endPos="14" duration="10"/>
		<stop lane="E10_1_0" endPos="14" duration="20"/>
		<stop lane="gneE29_0" endPos="14" duration="20"/>
    </vehicle>
    <vehicle id="6" type="bus" depart="390.00">
        <route edges="-gneE7 E1_1 gneE32 -gneE32 E1_2 gneE7 -gneE7 E1_1 gneE32 -gneE32 E1_2 gneE7 -gneE7 E1_1 gneE32 -gneE32 E1_2 gneE7 -gneE7 E1_1 gneE32 -gneE32 E1_2 gneE7 -gneE7 E1_1 gneE32 -gneE32 E1_2 gneE7 -gneE7 E1_1 gneE32 -gneE32 E1_2 gneE7"/>
 		<stop lane="E1_1_0" endPos="14" duration="11.8"/>
 		<stop lane="gneE32_0" endPos="14" duration="12.3"/>
 		<stop lane="E1_1_0" endPos="14" duration="11.8"/>
 		<stop lane="gneE32_0" endPos="14" duration="12.3"/>
 		<stop lane="E1_1_0" endPos="14" duration="11.8"/>
 		<stop lane="gneE32_0" endPos="14" duration="12.3"/>
 		<stop lane="E1_1_0" endPos="14" duration="11.8"/>
 		<stop lane="gneE32_0" endPos="14" duration="12.3"/>
 		<stop lane="E1_1_0" endPos="14" duration="11.8"/>
 		<stop lane="gneE32_0" endPos="14" duration="12.3"/>
 		<stop lane="E1_1_0" endPos="14" duration="11.8"/>
 		<stop lane="gneE32_0" endPos="14" duration="12.3"/>
    </vehicle>
    <vehicle id="11" type="bus" depart="402.00">
        <route edges="-gneE14 E3_2 gneE33 -gneE33 E3_1 gneE14 -gneE14 E3_2 gneE33 -gneE33 E3_1 gneE14 -gneE14 E3_2 gneE33 -gneE33 E3_1 gneE14 -gneE14 E3_2 gneE33 -gneE33 E3_1 gneE14 -gneE14 E3_2 gneE33 -gneE33 E3_1 gneE14 -gneE14 E3_2 gneE33 -gneE33 E3_1 gneE14"/>
		<stop lane="E3_2_0" endPos="14" duration="16"/>
		<stop lane="gneE33_0" endPos="14" duration="20"/>
		<stop lane="gneE14_0" endPos="14" duration="10.39"/>
		<stop lane="E3_2_0" endPos="14" duration="16"/>
		<stop lane="gneE33_0" endPos="14" duration="20"/>
		<stop lane="gneE14_0" endPos="14" duration="10.39"/>
		<stop lane="E3_2_0" endPos="14" duration="16"/>
		<stop lane="gneE33_0" endPos="14" duration="20"/>
		<stop lane="gneE14_0" endPos="14" duration="10.39"/>
		<stop lane="E3_2_0" endPos="14" duration="16"/>
		<stop lane="gneE33_0" endPos="14" duration="20"/>
		<stop lane="gneE14_0" endPos="14" duration="10.39"/>
		<stop lane="E3_2_0" endPos="14" duration="16"/>
		<stop lane="gneE33_0" endPos="14" duration="20"/>
		<stop lane="gneE14_0" endPos="14" duration="10.39"/>
		<stop lane="E3_2_0" endPos="14" duration="16"/>
		<stop lane="gneE33_0" endPos="14" duration="20"/>
		<stop lane="gneE14_0" endPos="14" duration="10.39"/>
    </vehicle>
    <vehicle id="32" type="bus" depart="435.00">
        <route edges="-gneE35 E13_2 gneE21 -gneE21 E13_1 gneE35 -gneE35 E13_2 gneE21 -gneE21 E13_1 gneE35 -gneE35 E13_2 gneE21 -gneE21 E13_1 gneE35 -gneE35 E13_2 gneE21 -gneE21 E13_1 gneE35 -gneE35 E13_2 gneE21 -gneE21 E13_1 gneE35 -gneE35 E13_2 gneE21 -gneE21 E13_1 gneE35"/>
		<stop lane="E13_2_0" endPos="14" duration="10"/>
		<stop lane="gneE21_0" endPos="14" duration="270"/>
		<stop lane="E13_2_0" endPos="14" duration="10"/>
		<stop lane="gneE21_0" endPos="14" duration="270"/>
		<stop lane="E13_2_0" endPos="14" duration="10"/>
		<stop lane="gneE21_0" endPos="14" duration="270"/>
		<stop lane="E13_2_0" endPos="14" duration="10"/>
		<stop lane="gneE21_0" endPos="14" duration="270"/>
		<stop lane="E13_2_0" endPos="14" duration="10"/>
		<stop lane="gneE21_0" endPos="14" duration="270"/>
		<stop lane="E13_2_0" endPos="14" duration="10"/>
		<stop lane="gneE21_0" endPos="14" duration="270"/>
    </vehicle>
    <vehicle id="27" type="bus" depart="526.00">