<?xml version="1.0" encoding="UTF-8"?>

<!-- generated on sex 19 jul 2019 11:41:22 -03 by Netedit Version 0.32.0
<?xml version="1.0" encoding="UTF-8"?>

<configuration xmlns:xsi="http://www.w3.org/2001/XMLSchema-instance" xsi:noNamespaceSchemaLocation="http://sumo.dlr.de/xsd/netconvertConfiguration.xsd">

    <input>
        <sumo-net-file value="/home/wagner/teor5x5x3.net.xml"/>
    </input>

    <output>
        <output-file value="/home/wagner/teor5x5x3.net.xml"/>
    </output>

    <processing>
        <no-turnarounds value="true"/>
        <offset.disable-normalization value="true"/>
        <lefthand value="false"/>
        <junctions.corner-detail value="0"/>
        <rectangular-lane-cut value="false"/>
        <walkingareas value="false"/>
    </processing>

</configuration>
-->

<net version="0.27" xmlns:xsi="http://www.w3.org/2001/XMLSchema-instance" xsi:noNamespaceSchemaLocation="http://sumo.dlr.de/xsd/net_file.xsd">

    <location netOffset="20.00,20.00" convBoundary="20.00,20.00,1220.00,1220.00" origBoundary="0.00,0.00,1200.00,1200.00" projParameter="!"/>

    <edge id=":0/0_0" function="internal">
        <lane id=":0/0_0_0" index="0" speed="13.90" length="18.55" shape="15.05,26.55 15.77,21.52 17.92,17.92 21.52,15.77 26.55,15.05"/>
    </edge>
    <edge id=":0/0_1" function="internal">
        <lane id=":0/0_1_0" index="0" speed="13.90" length="13.22" shape="18.35,26.55 18.86,22.96 20.40,20.40 22.96,18.86 26.55,18.35"/>
    </edge>
    <edge id=":0/0_2" function="internal">
        <lane id=":0/0_2_0" index="0" speed="13.90" length="2.69" shape="18.35,26.55 19.17,25.31 20.00,24.90 20.25,25.03"/>
    </edge>
    <edge id=":0/0_6" function="internal">
        <lane id=":0/0_6_0" index="0" speed="13.90" length="2.13" shape="20.25,25.03 20.82,25.31 21.65,26.55"/>
    </edge>
    <edge id=":0/0_3" function="internal">
        <lane id=":0/0_3_0" index="0" speed="13.90" length="2.58" shape="26.55,24.95 25.85,25.05 25.35,25.35 25.05,25.85 24.95,26.55"/>
    </edge>
    <edge id=":0/0_4" function="internal">
        <lane id=":0/0_4_0" index="0" speed="13.90" length="7.90" shape="26.55,21.65 24.41,21.96 22.88,22.87 21.96,24.41 21.65,26.55"/>
    </edge>
    <edge id=":0/0_5" function="internal">
        <lane id=":0/0_5_0" index="0" speed="13.90" length="2.20" shape="26.55,21.65 25.31,20.83 24.99,20.19"/>
    </edge>
    <edge id=":0/0_7" function="internal">
        <lane id=":0/0_7_0" index="0" speed="13.90" length="2.62" shape="24.99,20.19 24.90,20.00 25.31,19.18 26.55,18.35"/>
    </edge>
    <edge id=":0/1_0" function="internal">
        <lane id=":0/1_0_0" index="0" speed="13.90" length="16.10" shape="15.05,328.05 15.05,311.95"/>
        <lane id=":0/1_0_1" index="1" speed="13.90" length="16.10" shape="18.35,328.05 18.35,311.95"/>
    </edge>
    <edge id=":0/1_2" function="internal">
        <lane id=":0/1_2_0" index="0" speed="13.90" length="6.41" shape="18.35,328.05 18.96,323.81 20.05,321.98"/>
    </edge>
    <edge id=":0/1_3" function="internal">
        <lane id=":0/1_3_0" index="0" speed="13.90" length="2.41" shape="18.35,328.05 19.17,326.81 20.00,326.40"/>
    </edge>
    <edge id=":0/1_11" function="internal">
        <lane id=":0/1_11_0" index="0" speed="13.90" length="9.23" shape="20.05,321.98 20.77,320.77 23.81,318.96 28.05,318.35"/>
    </edge>
    <edge id=":0/1_12" function="internal">
        <lane id=":0/1_12_0" index="0" speed="13.90" length="2.41" shape="20.00,326.40 20.82,326.81 21.65,328.05"/>
    </edge>
    <edge id=":0/1_4" function="internal">
        <lane id=":0/1_4_0" index="0" speed="13.90" length="5.00" shape="28.05,324.95 26.69,325.14 25.73,325.72 25.14,326.69 24.95,328.05"/>
    </edge>
    <edge id=":0/1_5" function="internal">
        <lane id=":0/1_5_0" index="0" speed="13.90" length="15.64" shape="28.05,321.65 23.81,321.04 20.77,319.22 18.96,316.19 18.35,311.95"/>
    </edge>
    <edge id=":0/1_6" function="internal">
        <lane id=":0/1_6_0" index="0" speed="13.90" length="4.82" shape="28.05,321.65 26.81,320.83 26.40,320.00 26.81,319.18 28.05,318.35"/>
    </edge>
    <edge id=":0/1_7" function="internal">
        <lane id=":0/1_7_0" index="0" speed="13.90" length="5.00" shape="24.95,311.95 25.14,313.31 25.72,314.27 26.69,314.86 28.05,315.05"/>
    </edge>
    <edge id=":0/1_8" function="internal">
        <lane id=":0/1_8_0" index="0" speed="13.90" length="16.10" shape="24.95,311.95 24.95,328.05"/>
        <lane id=":0/1_8_1" index="1" speed="13.90" length="16.10" shape="21.65,311.95 21.65,328.05"/>
    </edge>
    <edge id=":0/1_10" function="internal">
        <lane id=":0/1_10_0" index="0" speed="13.90" length="2.41" shape="21.65,311.95 20.83,313.19 20.00,313.60"/>
    </edge>
    <edge id=":0/1_13" function="internal">
        <lane id=":0/1_13_0" index="0" speed="13.90" length="2.41" shape="20.00,313.60 19.18,313.19 18.35,311.95"/>
    </edge>
    <edge id=":0/2_0" function="internal">
        <lane id=":0/2_0_0" index="0" speed="13.90" length="16.10" shape="15.05,628.05 15.05,611.95"/>
        <lane id=":0/2_0_1" index="1" speed="13.90" length="16.10" shape="18.35,628.05 18.35,611.95"/>
    </edge>
    <edge id=":0/2_2" function="internal">
        <lane id=":0/2_2_0" index="0" speed="13.90" length="6.41" shape="18.35,628.05 18.96,623.81 20.05,621.98"/>
    </edge>
    <edge id=":0/2_3" function="internal">
        <lane id=":0/2_3_0" index="0" speed="13.90" length="2.41" shape="18.35,628.05 19.17,626.81 20.00,626.40"/>
    </edge>
    <edge id=":0/2_11" function="internal">
        <lane id=":0/2_11_0" index="0" speed="13.90" length="9.23" shape="20.05,621.98 20.77,620.77 23.81,618.96 28.05,618.35"/>
    </edge>
    <edge id=":0/2_12" function="internal">
        <lane id=":0/2_12_0" index="0" speed="13.90" length="2.41" shape="20.00,626.40 20.82,626.81 21.65,628.05"/>
    </edge>
    <edge id=":0/2_4" function="internal">
        <lane id=":0/2_4_0" index="0" speed="13.90" length="5.00" shape="28.05,624.95 26.69,625.14 25.73,625.73 25.14,626.69 24.95,628.05"/>
    </edge>
    <edge id=":0/2_5" function="internal">
        <lane id=":0/2_5_0" index="0" speed="13.90" length="15.64" shape="28.05,621.65 23.81,621.04 20.77,619.22 18.96,616.19 18.35,611.95"/>
    </edge>
    <edge id=":0/2_6" function="internal">
        <lane id=":0/2_6_0" index="0" speed="13.90" length="4.82" shape="28.05,621.65 26.81,620.82 26.40,620.00 26.81,619.17 28.05,618.35"/>
    </edge>
    <edge id=":0/2_7" function="internal">
        <lane id=":0/2_7_0" index="0" speed="13.90" length="5.00" shape="24.95,611.95 25.14,613.31 25.72,614.27 26.69,614.86 28.05,615.05"/>
    </edge>
    <edge id=":0/2_8" function="internal">
        <lane id=":0/2_8_0" index="0" speed="13.90" length="16.10" shape="24.95,611.95 24.95,628.05"/>
        <lane id=":0/2_8_1" index="1" speed="13.90" length="16.10" shape="21.65,611.95 21.65,628.05"/>
    </edge>
    <edge id=":0/2_10" function="internal">
        <lane id=":0/2_10_0" index="0" speed="13.90" length="2.41" shape="21.65,611.95 20.83,613.19 20.00,613.60"/>
    </edge>
    <edge id=":0/2_13" function="internal">
        <lane id=":0/2_13_0" index="0" speed="13.90" length="2.41" shape="20.00,613.60 19.18,613.19 18.35,611.95"/>
    </edge>
    <edge id=":0/3_0" function="internal">
        <lane id=":0/3_0_0" index="0" speed="13.90" length="16.10" shape="15.05,928.05 15.05,911.95"/>
        <lane id=":0/3_0_1" index="1" speed="13.90" length="16.10" shape="18.35,928.05 18.35,911.95"/>
    </edge>
    <edge id=":0/3_2" function="internal">
        <lane id=":0/3_2_0" index="0" speed="13.90" length="6.41" shape="18.35,928.05 18.96,923.81 20.05,921.98"/>
    </edge>
    <edge id=":0/3_3" function="internal">
        <lane id=":0/3_3_0" index="0" speed="13.90" length="2.41" shape="18.35,928.05 19.17,926.81 20.00,926.40"/>
    </edge>
    <edge id=":0/3_11" function="internal">
        <lane id=":0/3_11_0" index="0" speed="13.90" length="9.23" shape="20.05,921.98 20.77,920.77 23.81,918.96 28.05,918.35"/>
    </edge>
    <edge id=":0/3_12" function="internal">
        <lane id=":0/3_12_0" index="0" speed="13.90" length="2.41" shape="20.00,926.40 20.82,926.81 21.65,928.05"/>
    </edge>
    <edge id=":0/3_4" function="internal">
        <lane id=":0/3_4_0" index="0" speed="13.90" length="5.00" shape="28.05,924.95 26.69,925.14 25.73,925.73 25.14,926.69 24.95,928.05"/>
    </edge>
    <edge id=":0/3_5" function="internal">
        <lane id=":0/3_5_0" index="0" speed="13.90" length="15.64" shape="28.05,921.65 23.81,921.04 20.77,919.22 18.96,916.19 18.35,911.95"/>
    </edge>
    <edge id=":0/3_6" function="internal">
        <lane id=":0/3_6_0" index="0" speed="13.90" length="4.82" shape="28.05,921.65 26.81,920.83 26.40,920.00 26.81,919.17 28.05,918.35"/>
    </edge>
    <edge id=":0/3_7" function="internal">
        <lane id=":0/3_7_0" index="0" speed="13.90" length="5.00" shape="24.95,911.95 25.14,913.31 25.72,914.27 26.69,914.86 28.05,915.05"/>
    </edge>
    <edge id=":0/3_8" function="internal">
        <lane id=":0/3_8_0" index="0" speed="13.90" length="16.10" shape="24.95,911.95 24.95,928.05"/>
        <lane id=":0/3_8_1" index="1" speed="13.90" length="16.10" shape="21.65,911.95 21.65,928.05"/>
    </edge>
    <edge id=":0/3_10" function="internal">
        <lane id=":0/3_10_0" index="0" speed="13.90" length="2.41" shape="21.65,911.95 20.83,913.19 20.00,913.60"/>
    </edge>
    <edge id=":0/3_13" function="internal">
        <lane id=":0/3_13_0" index="0" speed="13.90" length="2.41" shape="20.00,913.60 19.18,913.19 18.35,911.95"/>
    </edge>
    <edge id=":0/4_0" function="internal">
        <lane id=":0/4_0_0" index="0" speed="13.90" length="18.55" shape="26.55,1224.95 21.52,1224.23 17.92,1222.08 15.77,1218.48 15.05,1213.45"/>
    </edge>
    <edge id=":0/4_1" function="internal">
        <lane id=":0/4_1_0" index="0" speed="13.90" length="13.22" shape="26.55,1221.65 22.96,1221.14 20.40,1219.60 18.86,1217.04 18.35,1213.45"/>
    </edge>
    <edge id=":0/4_2" function="internal">
        <lane id=":0/4_2_0" index="0" speed="13.90" length="2.69" shape="26.55,1221.65 25.31,1220.82 24.90,1220.00 25.03,1219.75"/>
    </edge>
    <edge id=":0/4_6" function="internal">
        <lane id=":0/4_6_0" index="0" speed="13.90" length="2.13" shape="25.03,1219.75 25.31,1219.17 26.55,1218.35"/>
    </edge>
    <edge id=":0/4_3" function="internal">
        <lane id=":0/4_3_0" index="0" speed="13.90" length="2.58" shape="24.95,1213.45 25.05,1214.15 25.35,1214.65 25.85,1214.95 26.55,1215.05"/>
    </edge>
    <edge id=":0/4_4" function="internal">
        <lane id=":0/4_4_0" index="0" speed="13.90" length="7.90" shape="21.65,1213.45 21.96,1215.59 22.87,1217.12 24.41,1218.04 26.55,1218.35"/>
    </edge>
    <edge id=":0/4_5" function="internal">
        <lane id=":0/4_5_0" index="0" speed="13.90" length="2.20" shape="21.65,1213.45 20.83,1214.69 20.19,1215.01"/>
    </edge>
    <edge id=":0/4_7" function="internal">
        <lane id=":0/4_7_0" index="0" speed="13.90" length="2.62" shape="20.19,1215.01 20.00,1215.10 19.18,1214.69 18.35,1213.45"/>
    </edge>
    <edge id=":1/0_0" function="internal">
        <lane id=":1/0_0_0" index="0" speed="13.90" length="5.00" shape="315.05,28.05 314.86,26.69 314.28,25.73 313.31,25.14 311.95,24.95"/>
    </edge>
    <edge id=":1/0_1" function="internal">
        <lane id=":1/0_1_0" index="0" speed="13.90" length="15.64" shape="318.35,28.05 318.96,23.81 320.78,20.77 323.81,18.96 328.05,18.35"/>
    </edge>
    <edge id=":1/0_2" function="internal">
        <lane id=":1/0_2_0" index="0" speed="13.90" length="4.82" shape="318.35,28.05 319.17,26.81 320.00,26.40 320.82,26.81 321.65,28.05"/>
    </edge>
    <edge id=":1/0_3" function="internal">
        <lane id=":1/0_3_0" index="0" speed="13.90" length="5.00" shape="328.05,24.95 326.69,25.14 325.73,25.72 325.14,26.69 324.95,28.05"/>
    </edge>
    <edge id=":1/0_4" function="internal">
        <lane id=":1/0_4_0" index="0" speed="13.90" length="16.10" shape="328.05,24.95 311.95,24.95"/>
        <lane id=":1/0_4_1" index="1" speed="13.90" length="16.10" shape="328.05,21.65 311.95,21.65"/>
    </edge>
    <edge id=":1/0_6" function="internal">
        <lane id=":1/0_6_0" index="0" speed="13.90" length="2.41" shape="328.05,21.65 326.81,20.83 326.40,20.00"/>
    </edge>
    <edge id=":1/0_11" function="internal">
        <lane id=":1/0_11_0" index="0" speed="13.90" length="2.41" shape="326.40,20.00 326.81,19.18 328.05,18.35"/>
    </edge>
    <edge id=":1/0_7" function="internal">
        <lane id=":1/0_7_0" index="0" speed="13.90" length="16.10" shape="311.95,15.05 328.05,15.05"/>
        <lane id=":1/0_7_1" index="1" speed="13.90" length="16.10" shape="311.95,18.35 328.05,18.35"/>
    </edge>
    <edge id=":1/0_9" function="internal">
        <lane id=":1/0_9_0" index="0" speed="13.90" length="6.41" shape="311.95,18.35 316.19,18.96 318.02,20.05"/>
    </edge>
    <edge id=":1/0_10" function="internal">
        <lane id=":1/0_10_0" index="0" speed="13.90" length="2.41" shape="311.95,18.35 313.19,19.17 313.60,20.00"/>
    </edge>
    <edge id=":1/0_12" function="internal">
        <lane id=":1/0_12_0" index="0" speed="13.90" length="9.23" shape="318.02,20.05 319.23,20.77 321.04,23.81 321.65,28.05"/>
    </edge>
    <edge id=":1/0_13" function="internal">
        <lane id=":1/0_13_0" index="0" speed="13.90" length="2.41" shape="313.60,20.00 313.19,20.82 311.95,21.65"/>
    </edge>
    <edge id=":1/1_0" function="internal">
        <lane id=":1/1_0_0" index="0" speed="13.90" length="5.00" shape="315.05,328.05 314.86,326.69 314.28,325.73 313.31,325.14 311.95,324.95"/>
    </edge>
    <edge id=":1/1_1" function="internal">
        <lane id=":1/1_1_0" index="0" speed="13.90" length="16.10" shape="315.05,328.05 315.05,311.95"/>
        <lane id=":1/1_1_1" index="1" speed="13.90" length="16.10" shape="318.35,328.05 318.35,311.95"/>
    </edge>
    <edge id=":1/1_3" function="internal">
        <lane id=":1/1_3_0" index="0" speed="13.90" length="6.41" shape="318.35,328.05 318.96,323.81 320.05,321.98"/>
    </edge>
    <edge id=":1/1_4" function="internal">
        <lane id=":1/1_4_0" index="0" speed="13.90" length="2.41" shape="318.35,328.05 319.17,326.81 320.00,326.40"/>
    </edge>
    <edge id=":1/1_20" function="internal">
        <lane id=":1/1_20_0" index="0" speed="13.90" length="9.23" shape="320.05,321.98 320.78,320.77 323.81,318.96 328.05,318.35"/>
    </edge>
    <edge id=":1/1_21" function="internal">
        <lane id=":1/1_21_0" index="0" speed="13.90" length="2.41" shape="320.00,326.40 320.82,326.81 321.65,328.05"/>
    </edge>
    <edge id=":1/1_5" function="internal">
        <lane id=":1/1_5_0" index="0" speed="13.90" length="5.00" shape="328.05,324.95 326.69,325.14 325.73,325.72 325.14,326.69 324.95,328.05"/>
    </edge>
    <edge id=":1/1_6" function="internal">
        <lane id=":1/1_6_0" index="0" speed="13.90" length="16.10" shape="328.05,324.95 311.95,324.95"/>
        <lane id=":1/1_6_1" index="1" speed="13.90" length="16.10" shape="328.05,321.65 311.95,321.65"/>
    </edge>
    <edge id=":1/1_8" function="internal">
        <lane id=":1/1_8_0" index="0" speed="13.90" length="15.64" shape="328.05,321.65 323.81,321.04 320.77,319.22 318.96,316.19 318.35,311.95"/>
    </edge>
    <edge id=":1/1_9" function="internal">
        <lane id=":1/1_9_0" index="0" speed="13.90" length="4.82" shape="328.05,321.65 326.81,320.83 326.40,320.00 326.81,319.18 328.05,318.35"/>
    </edge>
    <edge id=":1/1_10" function="internal">
        <lane id=":1/1_10_0" index="0" speed="13.90" length="5.00" shape="324.95,311.95 325.14,313.31 325.72,314.27 326.69,314.86 328.05,315.05"/>
    </edge>
    <edge id=":1/1_11" function="internal">
        <lane id=":1/1_11_0" index="0" speed="13.90" length="16.10" shape="324.95,311.95 324.95,328.05"/>
        <lane id=":1/1_11_1" index="1" speed="13.90" length="16.10" shape="321.65,311.95 321.65,328.05"/>
    </edge>
    <edge id=":1/1_13" function="internal">
        <lane id=":1/1_13_0" index="0" speed="13.90" length="6.41" shape="321.65,311.95 321.04,316.19 319.95,318.02"/>
    </edge>
    <edge id=":1/1_14" function="internal">
        <lane id=":1/1_14_0" index="0" speed="13.90" length="2.41" shape="321.65,311.95 320.83,313.19 320.00,313.60"/>
    </edge>
    <edge id=":1/1_22" function="internal">
        <lane id=":1/1_22_0" index="0" speed="13.90" length="9.23" shape="319.95,318.02 319.22,319.23 316.19,321.04 311.95,321.65"/>
    </edge>
    <edge id=":1/1_23" function="internal">
        <lane id=":1/1_23_0" index="0" speed="13.90" length="2.41" shape="320.00,313.60 319.18,313.19 318.35,311.95"/>
    </edge>
    <edge id=":1/1_15" function="internal">
        <lane id=":1/1_15_0" index="0" speed="13.90" length="5.00" shape="311.95,315.05 313.31,314.86 314.27,314.28 314.86,313.31 315.05,311.95"/>
    </edge>
    <edge id=":1/1_16" function="internal">
        <lane id=":1/1_16_0" index="0" speed="13.90" length="16.10" shape="311.95,315.05 328.05,315.05"/>
        <lane id=":1/1_16_1" index="1" speed="13.90" length="16.10" shape="311.95,318.35 328.05,318.35"/>
    </edge>
    <edge id=":1/1_18" function="internal">
        <lane id=":1/1_18_0" index="0" speed="13.90" length="15.64" shape="311.95,318.35 316.19,318.96 319.23,320.78 321.04,323.81 321.65,328.05"/>
    </edge>
    <edge id=":1/1_19" function="internal">
        <lane id=":1/1_19_0" index="0" speed="13.90" length="4.82" shape="311.95,318.35 313.19,319.17 313.60,320.00 313.19,320.82 311.95,321.65"/>
    </edge>
    <edge id=":1/2_0" function="internal">
        <lane id=":1/2_0_0" index="0" speed="13.90" length="5.00" shape="315.05,628.05 314.86,626.69 314.28,625.73 313.31,625.14 311.95,624.95"/>
    </edge>
    <edge id=":1/2_1" function="internal">
        <lane id=":1/2_1_0" index="0" speed="13.90" length="16.10" shape="315.05,628.05 315.05,611.95"/>
        <lane id=":1/2_1_1" index="1" speed="13.90" length="16.10" shape="318.35,628.05 318.35,611.95"/>
    </edge>
    <edge id=":1/2_3" function="internal">
        <lane id=":1/2_3_0" index="0" speed="13.90" length="6.41" shape="318.35,628.05 318.96,623.81 320.05,621.98"/>
    </edge>
    <edge id=":1/2_4" function="internal">
        <lane id=":1/2_4_0" index="0" speed="13.90" length="2.41" shape="318.35,628.05 319.17,626.81 320.00,626.40"/>
    </edge>
    <edge id=":1/2_20" function="internal">
        <lane id=":1/2_20_0" index="0" speed="13.90" length="9.23" shape="320.05,621.98 320.78,620.77 323.81,618.96 328.05,618.35"/>
    </edge>
    <edge id=":1/2_21" function="internal">
        <lane id=":1/2_21_0" index="0" speed="13.90" length="2.41" shape="320.00,626.40 320.82,626.81 321.65,628.05"/>
    </edge>
    <edge id=":1/2_5" function="internal">
        <lane id=":1/2_5_0" index="0" speed="13.90" length="5.00" shape="328.05,624.95 326.69,625.14 325.73,625.73 325.14,626.69 324.95,628.05"/>
    </edge>
    <edge id=":1/2_6" function="internal">
        <lane id=":1/2_6_0" index="0" speed="13.90" length="16.10" shape="328.05,624.95 311.95,624.95"/>
        <lane id=":1/2_6_1" index="1" speed="13.90" length="16.10" shape="328.05,621.65 311.95,621.65"/>
    </edge>
    <edge id=":1/2_8" function="internal">
        <lane id=":1/2_8_0" index="0" speed="13.90" length="15.64" shape="328.05,621.65 323.81,621.04 320.77,619.22 318.96,616.19 318.35,611.95"/>
    </edge>
    <edge id=":1/2_9" function="internal">
        <lane id=":1/2_9_0" index="0" speed="13.90" length="4.82" shape="328.05,621.65 326.81,620.82 326.40,620.00 326.81,619.17 328.05,618.35"/>
    </edge>
    <edge id=":1/2_10" function="internal">
        <lane id=":1/2_10_0" index="0" speed="13.90" length="5.00" shape="324.95,611.95 325.14,613.31 325.72,614.27 326.69,614.86 328.05,615.05"/>
    </edge>
    <edge id=":1/2_11" function="internal">
        <lane id=":1/2_11_0" index="0" speed="13.90" length="16.10" shape="324.95,611.95 324.95,628.05"/>
        <lane id=":1/2_11_1" index="1" speed="13.90" length="16.10" shape="321.65,611.95 321.65,628.05"/>
    </edge>
    <edge id=":1/2_13" function="internal">
        <lane id=":1/2_13_0" index="0" speed="13.90" length="6.41" shape="321.65,611.95 321.04,616.19 319.95,618.02"/>
    </edge>
    <edge id=":1/2_14" function="internal">
        <lane id=":1/2_14_0" index="0" speed="13.90" length="2.41" shape="321.65,611.95 320.83,613.19 320.00,613.60"/>
    </edge>
    <edge id=":1/2_22" function="internal">
        <lane id=":1/2_22_0" index="0" speed="13.90" length="9.23" shape="319.95,618.02 319.22,619.23 316.19,621.04 311.95,621.65"/>
    </edge>
    <edge id=":1/2_23" function="internal">
        <lane id=":1/2_23_0" index="0" speed="13.90" length="2.41" shape="320.00,613.60 319.18,613.19 318.35,611.95"/>
    </edge>
    <edge id=":1/2_15" function="internal">
        <lane id=":1/2_15_0" index="0" speed="13.90" length="5.00" shape="311.95,615.05 313.31,614.86 314.27,614.27 314.86,613.31 315.05,611.95"/>
    </edge>
    <edge id=":1/2_16" function="internal">
        <lane id=":1/2_16_0" index="0" speed="13.90" length="16.10" shape="311.95,615.05 328.05,615.05"/>
        <lane id=":1/2_16_1" index="1" speed="13.90" length="16.10" shape="311.95,618.35 328.05,618.35"/>
    </edge>
    <edge id=":1/2_18" function="internal">
        <lane id=":1/2_18_0" index="0" speed="13.90" length="15.64" shape="311.95,618.35 316.19,618.96 319.23,620.78 321.04,623.81 321.65,628.05"/>
    </edge>
    <edge id=":1/2_19" function="internal">
        <lane id=":1/2_19_0" index="0" speed="13.90" length="4.82" shape="311.95,618.35 313.19,619.18 313.60,620.00 313.19,620.83 311.95,621.65"/>
    </edge>
    <edge id=":1/3_0" function="internal">
        <lane id=":1/3_0_0" index="0" speed="13.90" length="5.00" shape="315.05,928.05 314.86,926.69 314.28,925.73 313.31,925.14 311.95,924.95"/>
    </edge>
    <edge id=":1/3_1" function="internal">
        <lane id=":1/3_1_0" index="0" speed="13.90" length="16.10" shape="315.05,928.05 315.05,911.95"/>
        <lane id=":1/3_1_1" index="1" speed="13.90" length="16.10" shape="318.35,928.05 318.35,911.95"/>
    </edge>
    <edge id=":1/3_3" function="internal">
        <lane id=":1/3_3_0" index="0" speed="13.90" length="6.41" shape="318.35,928.05 318.96,923.81 320.05,921.98"/>
    </edge>
    <edge id=":1/3_4" function="internal">
        <lane id=":1/3_4_0" index="0" speed="13.90" length="2.41" shape="318.35,928.05 319.17,926.81 320.00,926.40"/>
    </edge>
    <edge id=":1/3_20" function="internal">
        <lane id=":1/3_20_0" index="0" speed="13.90" length="9.23" shape="320.05,921.98 320.78,920.77 323.81,918.96 328.05,918.35"/>
    </edge>
    <edge id=":1/3_21" function="internal">
        <lane id=":1/3_21_0" index="0" speed="13.90" length="2.41" shape="320.00,926.40 320.82,926.81 321.65,928.05"/>
    </edge>
    <edge id=":1/3_5" function="internal">
        <lane id=":1/3_5_0" index="0" speed="13.90" length="5.00" shape="328.05,924.95 326.69,925.14 325.73,925.73 325.14,926.69 324.95,928.05"/>
    </edge>
    <edge id=":1/3_6" function="internal">
        <lane id=":1/3_6_0" index="0" speed="13.90" length="16.10" shape="328.05,924.95 311.95,924.95"/>
        <lane id=":1/3_6_1" index="1" speed="13.90" length="16.10" shape="328.05,921.65 311.95,921.65"/>
    </edge>
    <edge id=":1/3_8" function="internal">
        <lane id=":1/3_8_0" index="0" speed="13.90" length="15.64" shape="328.05,921.65 323.81,921.04 320.77,919.22 318.96,916.19 318.35,911.95"/>
    </edge>
    <edge id=":1/3_9" function="internal">
        <lane id=":1/3_9_0" index="0" speed="13.90" length="4.82" shape="328.05,921.65 326.81,920.83 326.40,920.00 326.81,919.17 328.05,918.35"/>
    </edge>
    <edge id=":1/3_10" function="internal">
        <lane id=":1/3_10_0" index="0" speed="13.90" length="5.00" shape="324.95,911.95 325.14,913.31 325.72,914.27 326.69,914.86 328.05,915.05"/>
    </edge>
    <edge id=":1/3_11" function="internal">
        <lane id=":1/3_11_0" index="0" speed="13.90" length="16.10" shape="324.95,911.95 324.95,928.05"/>
        <lane id=":1/3_11_1" index="1" speed="13.90" length="16.10" shape="321.65,911.95 321.65,928.05"/>
    </edge>
    <edge id=":1/3_13" function="internal">
        <lane id=":1/3_13_0" index="0" speed="13.90" length="6.41" shape="321.65,911.95 321.04,916.19 319.95,918.02"/>
    </edge>
    <edge id=":1/3_14" function="internal">
        <lane id=":1/3_14_0" index="0" speed="13.90" length="2.41" shape="321.65,911.95 320.83,913.19 320.00,913.60"/>
    </edge>
    <edge id=":1/3_22" function="internal">
        <lane id=":1/3_22_0" index="0" speed="13.90" length="9.23" shape="319.95,918.02 319.22,919.23 316.19,921.04 311.95,921.65"/>
    </edge>
    <edge id=":1/3_23" function="internal">
        <lane id=":1/3_23_0" index="0" speed="13.90" length="2.41" shape="320.00,913.60 319.18,913.19 318.35,911.95"/>
    </edge>
    <edge id=":1/3_15" function="internal">
        <lane id=":1/3_15_0" index="0" speed="13.90" length="5.00" shape="311.95,915.05 313.31,914.86 314.27,914.27 314.86,913.31 315.05,911.95"/>
    </edge>
    <edge id=":1/3_16" function="internal">
        <lane id=":1/3_16_0" index="0" speed="13.90" length="16.10" shape="311.95,915.05 328.05,915.05"/>
        <lane id=":1/3_16_1" index="1" speed="13.90" length="16.10" shape="311.95,918.35 328.05,918.35"/>
    </edge>
    <edge id=":1/3_18" function="internal">
        <lane id=":1/3_18_0" index="0" speed="13.90" length="15.64" shape="311.95,918.35 316.19,918.96 319.23,920.78 321.04,923.81 321.65,928.05"/>
    </edge>
    <edge id=":1/3_19" function="internal">
        <lane id=":1/3_19_0" index="0" speed="13.90" length="4.82" shape="311.95,918.35 313.19,919.17 313.60,920.00 313.19,920.83 311.95,921.65"/>
    </edge>
    <edge id=":1/4_0" function="internal">
        <lane id=":1/4_0_0" index="0" speed="13.90" length="16.10" shape="328.05,1224.95 311.95,1224.95"/>
        <lane id=":1/4_0_1" index="1" speed="13.90" length="16.10" shape="328.05,1221.65 311.95,1221.65"/>
    </edge>
    <edge id=":1/4_2" function="internal">
        <lane id=":1/4_2_0" index="0" speed="13.90" length="6.41" shape="328.05,1221.65 323.81,1221.04 321.98,1219.95"/>
    </edge>
    <edge id=":1/4_3" function="internal">
        <lane id=":1/4_3_0" index="0" speed="13.90" length="2.41" shape="328.05,1221.65 326.81,1220.82 326.40,1220.00"/>
    </edge>
    <edge id=":1/4_11" function="internal">
        <lane id=":1/4_11_0" index="0" speed="13.90" length="9.23" shape="321.98,1219.95 320.77,1219.23 318.96,1216.19 318.35,1211.95"/>
    </edge>
    <edge id=":1/4_12" function="internal">
        <lane id=":1/4_12_0" index="0" speed="13.90" length="2.41" shape="326.40,1220.00 326.81,1219.17 328.05,1218.35"/>
    </edge>
    <edge id=":1/4_4" function="internal">
        <lane id=":1/4_4_0" index="0" speed="13.90" length="5.00" shape="324.95,1211.95 325.14,1213.31 325.72,1214.28 326.69,1214.86 328.05,1215.05"/>
    </edge>
    <edge id=":1/4_5" function="internal">
        <lane id=":1/4_5_0" index="0" speed="13.90" length="15.64" shape="321.65,1211.95 321.04,1216.19 319.22,1219.22 316.19,1221.04 311.95,1221.65"/>
    </edge>
    <edge id=":1/4_6" function="internal">
        <lane id=":1/4_6_0" index="0" speed="13.90" length="4.82" shape="321.65,1211.95 320.83,1213.19 320.00,1213.60 319.18,1213.19 318.35,1211.95"/>
    </edge>
    <edge id=":1/4_7" function="internal">
        <lane id=":1/4_7_0" index="0" speed="13.90" length="5.00" shape="311.95,1215.05 313.31,1214.86 314.27,1214.27 314.86,1213.31 315.05,1211.95"/>
    </edge>
    <edge id=":1/4_8" function="internal">
        <lane id=":1/4_8_0" index="0" speed="13.90" length="16.10" shape="311.95,1215.05 328.05,1215.05"/>
        <lane id=":1/4_8_1" index="1" speed="13.90" length="16.10" shape="311.95,1218.35 328.05,1218.35"/>
    </edge>
    <edge id=":1/4_10" function="internal">
        <lane id=":1/4_10_0" index="0" speed="13.90" length="2.41" shape="311.95,1218.35 313.19,1219.18 313.60,1220.00"/>
    </edge>
    <edge id=":1/4_13" function="internal">
        <lane id=":1/4_13_0" index="0" speed="13.90" length="2.41" shape="313.60,1220.00 313.19,1220.83 311.95,1221.65"/>
    </edge>
    <edge id=":2/0_0" function="internal">
        <lane id=":2/0_0_0" index="0" speed="13.90" length="5.00" shape="615.05,28.05 614.86,26.69 614.27,25.73 613.31,25.14 611.95,24.95"/>
    </edge>
    <edge id=":2/0_1" function="internal">
        <lane id=":2/0_1_0" index="0" speed="13.90" length="15.64" shape="618.35,28.05 618.96,23.81 620.78,20.77 623.81,18.96 628.05,18.35"/>
    </edge>
    <edge id=":2/0_2" function="internal">
        <lane id=":2/0_2_0" index="0" speed="13.90" length="4.82" shape="618.35,28.05 619.18,26.81 620.00,26.40 620.83,26.81 621.65,28.05"/>
    </edge>
    <edge id=":2/0_3" function="internal">
        <lane id=":2/0_3_0" index="0" speed="13.90" length="5.00" shape="628.05,24.95 626.69,25.14 625.73,25.72 625.14,26.69 624.95,28.05"/>
    </edge>
    <edge id=":2/0_4" function="internal">
        <lane id=":2/0_4_0" index="0" speed="13.90" length="16.10" shape="628.05,24.95 611.95,24.95"/>
        <lane id=":2/0_4_1" index="1" speed="13.90" length="16.10" shape="628.05,21.65 611.95,21.65"/>
    </edge>
    <edge id=":2/0_6" function="internal">
        <lane id=":2/0_6_0" index="0" speed="13.90" length="2.41" shape="628.05,21.65 626.81,20.83 626.40,20.00"/>
    </edge>
    <edge id=":2/0_11" function="internal">
        <lane id=":2/0_11_0" index="0" speed="13.90" length="2.41" shape="626.40,20.00 626.81,19.18 628.05,18.35"/>
    </edge>
    <edge id=":2/0_7" function="internal">
        <lane id=":2/0_7_0" index="0" speed="13.90" length="16.10" shape="611.95,15.05 628.05,15.05"/>
        <lane id=":2/0_7_1" index="1" speed="13.90" length="16.10" shape="611.95,18.35 628.05,18.35"/>
    </edge>
    <edge id=":2/0_9" function="internal">