<?xml version="1.0" encoding="UTF-8"?>

<!-- generated on seg 15 jul 2019 07:24:23 -03 by Netedit Version 0.32.0
<?xml version="1.0" encoding="UTF-8"?>

<configuration xmlns:xsi="http://www.w3.org/2001/XMLSchema-instance" xsi:noNamespaceSchemaLocation="http://sumo.dlr.de/xsd/netconvertConfiguration.xsd">

    <input>
        <sumo-net-file value="/home/wagner/teor4x4x9.net.xml"/>
    </input>

    <output>
        <output-file value="/home/wagner/teor4x4x9.net.xml"/>
    </output>

    <processing>
        <no-turnarounds value="true"/>
        <offset.disable-normalization value="true"/>
        <lefthand value="false"/>
        <junctions.corner-detail value="0"/>
        <rectangular-lane-cut value="false"/>
        <walkingareas value="false"/>
    </processing>

</configuration>
-->

<net version="0.27" xmlns:xsi="http://www.w3.org/2001/XMLSchema-instance" xsi:noNamespaceSchemaLocation="http://sumo.dlr.de/xsd/net_file.xsd">

    <location netOffset="20.00,20.00" convBoundary="20.00,20.00,2720.00,2720.00" origBoundary="0.00,0.00,2700.00,2700.00" projParameter="!"/>

    <edge id=":0/0_0" function="internal">
        <lane id=":0/0_0_0" index="0" speed="13.90" length="18.55" shape="15.05,26.55 15.77,21.52 17.93,17.93 21.52,15.77 26.55,15.05"/>
    </edge>
    <edge id=":0/0_1" function="internal">
        <lane id=":0/0_1_0" index="0" speed="13.90" length="13.22" shape="18.35,26.55 18.86,22.96 20.40,20.40 22.96,18.86 26.55,18.35"/>
    </edge>
    <edge id=":0/0_2" function="internal">
        <lane id=":0/0_2_0" index="0" speed="13.90" length="2.69" shape="18.35,26.55 19.17,25.31 20.00,24.90 20.25,25.03"/>
    </edge>
    <edge id=":0/0_6" function="internal">
        <lane id=":0/0_6_0" index="0" speed="13.90" length="2.13" shape="20.25,25.03 20.82,25.31 21.65,26.55"/>
    </edge>
    <edge id=":0/0_3" function="internal">
        <lane id=":0/0_3_0" index="0" speed="13.90" length="2.58" shape="26.55,24.95 25.85,25.05 25.35,25.35 25.05,25.85 24.95,26.55"/>
    </edge>
    <edge id=":0/0_4" function="internal">
        <lane id=":0/0_4_0" index="0" speed="13.90" length="7.90" shape="26.55,21.65 24.41,21.96 22.88,22.88 21.96,24.41 21.65,26.55"/>
    </edge>
    <edge id=":0/0_5" function="internal">
        <lane id=":0/0_5_0" index="0" speed="13.90" length="2.20" shape="26.55,21.65 25.31,20.83 24.99,20.19"/>
    </edge>
    <edge id=":0/0_7" function="internal">
        <lane id=":0/0_7_0" index="0" speed="13.90" length="2.62" shape="24.99,20.19 24.90,20.00 25.31,19.18 26.55,18.35"/>
    </edge>
    <edge id=":0/1_0" function="internal">
        <lane id=":0/1_0_0" index="0" speed="13.90" length="16.10" shape="15.05,928.05 15.05,911.95"/>
        <lane id=":0/1_0_1" index="1" speed="13.90" length="16.10" shape="18.35,928.05 18.35,911.95"/>
    </edge>
    <edge id=":0/1_2" function="internal">
        <lane id=":0/1_2_0" index="0" speed="13.90" length="6.41" shape="18.35,928.05 18.96,923.81 20.05,921.98"/>
    </edge>
    <edge id=":0/1_3" function="internal">
        <lane id=":0/1_3_0" index="0" speed="13.90" length="2.41" shape="18.35,928.05 19.17,926.81 20.00,926.40"/>
    </edge>
    <edge id=":0/1_11" function="internal">
        <lane id=":0/1_11_0" index="0" speed="13.90" length="9.23" shape="20.05,921.98 20.78,920.77 23.81,918.96 28.05,918.35"/>
    </edge>
    <edge id=":0/1_12" function="internal">
        <lane id=":0/1_12_0" index="0" speed="13.90" length="2.41" shape="20.00,926.40 20.82,926.81 21.65,928.05"/>
    </edge>
    <edge id=":0/1_4" function="internal">
        <lane id=":0/1_4_0" index="0" speed="13.90" length="5.00" shape="28.05,924.95 26.69,925.14 25.73,925.73 25.14,926.69 24.95,928.05"/>
    </edge>
    <edge id=":0/1_5" function="internal">
        <lane id=":0/1_5_0" index="0" speed="13.90" length="15.64" shape="28.05,921.65 23.81,921.04 20.77,919.22 18.96,916.19 18.35,911.95"/>
    </edge>
    <edge id=":0/1_6" function="internal">
        <lane id=":0/1_6_0" index="0" speed="13.90" length="4.82" shape="28.05,921.65 26.81,920.83 26.40,920.00 26.81,919.17 28.05,918.35"/>
    </edge>
    <edge id=":0/1_7" function="internal">
        <lane id=":0/1_7_0" index="0" speed="13.90" length="5.00" shape="24.95,911.95 25.14,913.31 25.73,914.27 26.69,914.86 28.05,915.05"/>
    </edge>
    <edge id=":0/1_8" function="internal">
        <lane id=":0/1_8_0" index="0" speed="13.90" length="16.10" shape="24.95,911.95 24.95,928.05"/>
        <lane id=":0/1_8_1" index="1" speed="13.90" length="16.10" shape="21.65,911.95 21.65,928.05"/>
    </edge>
    <edge id=":0/1_10" function="internal">
        <lane id=":0/1_10_0" index="0" speed="13.90" length="2.41" shape="21.65,911.95 20.83,913.19 20.00,913.60"/>
    </edge>
    <edge id=":0/1_13" function="internal">
        <lane id=":0/1_13_0" index="0" speed="13.90" length="2.41" shape="20.00,913.60 19.18,913.19 18.35,911.95"/>
    </edge>
    <edge id=":0/2_0" function="internal">
        <lane id=":0/2_0_0" index="0" speed="13.90" length="16.10" shape="15.05,1828.05 15.05,1811.95"/>
        <lane id=":0/2_0_1" index="1" speed="13.90" length="16.10" shape="18.35,1828.05 18.35,1811.95"/>
    </edge>
    <edge id=":0/2_2" function="internal">
        <lane id=":0/2_2_0" index="0" speed="13.90" length="6.41" shape="18.35,1828.05 18.96,1823.81 20.05,1821.98"/>
    </edge>
    <edge id=":0/2_3" function="internal">
        <lane id=":0/2_3_0" index="0" speed="13.90" length="2.41" shape="18.35,1828.05 19.17,1826.81 20.00,1826.40"/>
    </edge>
    <edge id=":0/2_11" function="internal">
        <lane id=":0/2_11_0" index="0" speed="13.90" length="9.23" shape="20.05,1821.98 20.78,1820.78 23.81,1818.96 28.05,1818.35"/>
    </edge>
    <edge id=":0/2_12" function="internal">
        <lane id=":0/2_12_0" index="0" speed="13.90" length="2.41" shape="20.00,1826.40 20.82,1826.81 21.65,1828.05"/>
    </edge>
    <edge id=":0/2_4" function="internal">
        <lane id=":0/2_4_0" index="0" speed="13.90" length="5.00" shape="28.05,1824.95 26.69,1825.14 25.73,1825.73 25.14,1826.69 24.95,1828.05"/>
    </edge>
    <edge id=":0/2_5" function="internal">
        <lane id=":0/2_5_0" index="0" speed="13.90" length="15.64" shape="28.05,1821.65 23.81,1821.04 20.77,1819.23 18.96,1816.19 18.35,1811.95"/>
    </edge>
    <edge id=":0/2_6" function="internal">
        <lane id=":0/2_6_0" index="0" speed="13.90" length="4.82" shape="28.05,1821.65 26.81,1820.83 26.40,1820.00 26.81,1819.17 28.05,1818.35"/>
    </edge>
    <edge id=":0/2_7" function="internal">
        <lane id=":0/2_7_0" index="0" speed="13.90" length="5.00" shape="24.95,1811.95 25.14,1813.31 25.73,1814.28 26.69,1814.86 28.05,1815.05"/>
    </edge>
    <edge id=":0/2_8" function="internal">
        <lane id=":0/2_8_0" index="0" speed="13.90" length="16.10" shape="24.95,1811.95 24.95,1828.05"/>
        <lane id=":0/2_8_1" index="1" speed="13.90" length="16.10" shape="21.65,1811.95 21.65,1828.05"/>
    </edge>
    <edge id=":0/2_10" function="internal">
        <lane id=":0/2_10_0" index="0" speed="13.90" length="2.41" shape="21.65,1811.95 20.83,1813.19 20.00,1813.60"/>
    </edge>
    <edge id=":0/2_13" function="internal">
        <lane id=":0/2_13_0" index="0" speed="13.90" length="2.41" shape="20.00,1813.60 19.18,1813.19 18.35,1811.95"/>
    </edge>
    <edge id=":0/3_0" function="internal">
        <lane id=":0/3_0_0" index="0" speed="13.90" length="18.55" shape="26.55,2724.95 21.52,2724.23 17.93,2722.07 15.77,2718.48 15.05,2713.45"/>
    </edge>
    <edge id=":0/3_1" function="internal">
        <lane id=":0/3_1_0" index="0" speed="13.90" length="13.22" shape="26.55,2721.65 22.96,2721.14 20.40,2719.60 18.86,2717.04 18.35,2713.45"/>
    </edge>
    <edge id=":0/3_2" function="internal">
        <lane id=":0/3_2_0" index="0" speed="13.90" length="2.69" shape="26.55,2721.65 25.31,2720.83 24.90,2720.00 25.03,2719.75"/>
    </edge>
    <edge id=":0/3_6" function="internal">
        <lane id=":0/3_6_0" index="0" speed="13.90" length="2.13" shape="25.03,2719.75 25.31,2719.18 26.55,2718.35"/>
    </edge>
    <edge id=":0/3_3" function="internal">
        <lane id=":0/3_3_0" index="0" speed="13.90" length="2.58" shape="24.95,2713.45 25.05,2714.15 25.35,2714.65 25.85,2714.95 26.55,2715.05"/>
    </edge>
    <edge id=":0/3_4" function="internal">
        <lane id=":0/3_4_0" index="0" speed="13.90" length="7.90" shape="21.65,2713.45 21.96,2715.59 22.88,2717.12 24.41,2718.04 26.55,2718.35"/>
    </edge>
    <edge id=":0/3_5" function="internal">
        <lane id=":0/3_5_0" index="0" speed="13.90" length="2.20" shape="21.65,2713.45 20.83,2714.69 20.19,2715.01"/>
    </edge>
    <edge id=":0/3_7" function="internal">
        <lane id=":0/3_7_0" index="0" speed="13.90" length="2.62" shape="20.19,2715.01 20.00,2715.10 19.18,2714.69 18.35,2713.45"/>
    </edge>
    <edge id=":1/0_0" function="internal">
        <lane id=":1/0_0_0" index="0" speed="13.90" length="5.00" shape="915.05,28.05 914.86,26.69 914.27,25.73 913.31,25.14 911.95,24.95"/>
    </edge>
    <edge id=":1/0_1" function="internal">
        <lane id=":1/0_1_0" index="0" speed="13.90" length="15.64" shape="918.35,28.05 918.96,23.81 920.78,20.77 923.81,18.96 928.05,18.35"/>
    </edge>
    <edge id=":1/0_2" function="internal">
        <lane id=":1/0_2_0" index="0" speed="13.90" length="4.82" shape="918.35,28.05 919.17,26.81 920.00,26.40 920.83,26.81 921.65,28.05"/>
    </edge>
    <edge id=":1/0_3" function="internal">
        <lane id=":1/0_3_0" index="0" speed="13.90" length="5.00" shape="928.05,24.95 926.69,25.14 925.73,25.73 925.14,26.69 924.95,28.05"/>
    </edge>
    <edge id=":1/0_4" function="internal">
        <lane id=":1/0_4_0" index="0" speed="13.90" length="16.10" shape="928.05,24.95 911.95,24.95"/>
        <lane id=":1/0_4_1" index="1" speed="13.90" length="16.10" shape="928.05,21.65 911.95,21.65"/>
    </edge>
    <edge id=":1/0_6" function="internal">
        <lane id=":1/0_6_0" index="0" speed="13.90" length="2.41" shape="928.05,21.65 926.81,20.83 926.40,20.00"/>
    </edge>
    <edge id=":1/0_11" function="internal">
        <lane id=":1/0_11_0" index="0" speed="13.90" length="2.41" shape="926.40,20.00 926.81,19.18 928.05,18.35"/>
    </edge>
    <edge id=":1/0_7" function="internal">
        <lane id=":1/0_7_0" index="0" speed="13.90" length="16.10" shape="911.95,15.05 928.05,15.05"/>
        <lane id=":1/0_7_1" index="1" speed="13.90" length="16.10" shape="911.95,18.35 928.05,18.35"/>
    </edge>
    <edge id=":1/0_9" function="internal">
        <lane id=":1/0_9_0" index="0" speed="13.90" length="6.41" shape="911.95,18.35 916.19,18.96 918.02,20.05"/>
    </edge>
    <edge id=":1/0_10" function="internal">
        <lane id=":1/0_10_0" index="0" speed="13.90" length="2.41" shape="911.95,18.35 913.19,19.17 913.60,20.00"/>
    </edge>
    <edge id=":1/0_12" function="internal">
        <lane id=":1/0_12_0" index="0" speed="13.90" length="9.23" shape="918.02,20.05 919.23,20.78 921.04,23.81 921.65,28.05"/>
    </edge>
    <edge id=":1/0_13" function="internal">
        <lane id=":1/0_13_0" index="0" speed="13.90" length="2.41" shape="913.60,20.00 913.19,20.82 911.95,21.65"/>
    </edge>
    <edge id=":1/1_0" function="internal">
        <lane id=":1/1_0_0" index="0" speed="13.90" length="5.00" shape="915.05,928.05 914.86,926.69 914.27,925.73 913.31,925.14 911.95,924.95"/>
    </edge>
    <edge id=":1/1_1" function="internal">
        <lane id=":1/1_1_0" index="0" speed="13.90" length="16.10" shape="915.05,928.05 915.05,911.95"/>
        <lane id=":1/1_1_1" index="1" speed="13.90" length="16.10" shape="918.35,928.05 918.35,911.95"/>
    </edge>
    <edge id=":1/1_3" function="internal">
        <lane id=":1/1_3_0" index="0" speed="13.90" length="6.41" shape="918.35,928.05 918.96,923.81 920.05,921.98"/>
    </edge>
    <edge id=":1/1_4" function="internal">
        <lane id=":1/1_4_0" index="0" speed="13.90" length="2.41" shape="918.35,928.05 919.17,926.81 920.00,926.40"/>
    </edge>
    <edge id=":1/1_20" function="internal">
        <lane id=":1/1_20_0" index="0" speed="13.90" length="9.23" shape="920.05,921.98 920.78,920.77 923.81,918.96 928.05,918.35"/>
    </edge>
    <edge id=":1/1_21" function="internal">
        <lane id=":1/1_21_0" index="0" speed="13.90" length="2.41" shape="920.00,926.40 920.83,926.81 921.65,928.05"/>
    </edge>
    <edge id=":1/1_5" function="internal">
        <lane id=":1/1_5_0" index="0" speed="13.90" length="5.00" shape="928.05,924.95 926.69,925.14 925.73,925.73 925.14,926.69 924.95,928.05"/>
    </edge>
    <edge id=":1/1_6" function="internal">
        <lane id=":1/1_6_0" index="0" speed="13.90" length="16.10" shape="928.05,924.95 911.95,924.95"/>
        <lane id=":1/1_6_1" index="1" speed="13.90" length="16.10" shape="928.05,921.65 911.95,921.65"/>
    </edge>
    <edge id=":1/1_8" function="internal">
        <lane id=":1/1_8_0" index="0" speed="13.90" length="15.64" shape="928.05,921.65 923.81,921.04 920.77,919.22 918.96,916.19 918.35,911.95"/>
    </edge>
    <edge id=":1/1_9" function="internal">
        <lane id=":1/1_9_0" index="0" speed="13.90" length="4.82" shape="928.05,921.65 926.81,920.83 926.40,920.00 926.81,919.17 928.05,918.35"/>
    </edge>
    <edge id=":1/1_10" function="internal">
        <lane id=":1/1_10_0" index="0" speed="13.90" length="5.00" shape="924.95,911.95 925.14,913.31 925.73,914.27 926.69,914.86 928.05,915.05"/>
    </edge>
    <edge id=":1/1_11" function="internal">
        <lane id=":1/1_11_0" index="0" speed="13.90" length="16.10" shape="924.95,911.95 924.95,928.05"/>
        <lane id=":1/1_11_1" index="1" speed="13.90" length="16.10" shape="921.65,911.95 921.65,928.05"/>
    </edge>
    <edge id=":1/1_13" function="internal">
        <lane id=":1/1_13_0" index="0" speed="13.90" length="6.41" shape="921.65,911.95 921.04,916.19 919.95,918.02"/>
    </edge>
    <edge id=":1/1_14" function="internal">
        <lane id=":1/1_14_0" index="0" speed="13.90" length="2.41" shape="921.65,911.95 920.83,913.19 920.00,913.60"/>
    </edge>
    <edge id=":1/1_22" function="internal">
        <lane id=":1/1_22_0" index="0" speed="13.90" length="9.23" shape="919.95,918.02 919.22,919.23 916.19,921.04 911.95,921.65"/>
    </edge>
    <edge id=":1/1_23" function="internal">
        <lane id=":1/1_23_0" index="0" speed="13.90" length="2.41" shape="920.00,913.60 919.17,913.19 918.35,911.95"/>
    </edge>
    <edge id=":1/1_15" function="internal">
        <lane id=":1/1_15_0" index="0" speed="13.90" length="5.00" shape="911.95,915.05 913.31,914.86 914.27,914.27 914.86,913.31 915.05,911.95"/>
    </edge>
    <edge id=":1/1_16" function="internal">
        <lane id=":1/1_16_0" index="0" speed="13.90" length="16.10" shape="911.95,915.05 928.05,915.05"/>
        <lane id=":1/1_16_1" index="1" speed="13.90" length="16.10" shape="911.95,918.35 928.05,918.35"/>
    </edge>
    <edge id=":1/1_18" function="internal">
        <lane id=":1/1_18_0" index="0" speed="13.90" length="15.64" shape="911.95,918.35 916.19,918.96 919.23,920.78 921.04,923.81 921.65,928.05"/>
    </edge>
    <edge id=":1/1_19" function="internal">
        <lane id=":1/1_19_0" index="0" speed="13.90" length="4.82" shape="911.95,918.35 913.19,919.17 913.60,920.00 913.19,920.83 911.95,921.65"/>
    </edge>
    <edge id=":1/2_0" function="internal">
        <lane id=":1/2_0_0" index="0" speed="13.90" length="5.00" shape="915.05,1828.05 914.86,1826.69 914.27,1825.72 913.31,1825.14 911.95,1824.95"/>
    </edge>
    <edge id=":1/2_1" function="internal">
        <lane id=":1/2_1_0" index="0" speed="13.90" length="16.10" shape="915.05,1828.05 915.05,1811.95"/>
        <lane id=":1/2_1_1" index="1" speed="13.90" length="16.10" shape="918.35,1828.05 918.35,1811.95"/>
    </edge>
    <edge id=":1/2_3" function="internal">
        <lane id=":1/2_3_0" index="0" speed="13.90" length="6.41" shape="918.35,1828.05 918.96,1823.81 920.05,1821.98"/>
    </edge>
    <edge id=":1/2_4" function="internal">
        <lane id=":1/2_4_0" index="0" speed="13.90" length="2.41" shape="918.35,1828.05 919.17,1826.81 920.00,1826.40"/>
    </edge>
    <edge id=":1/2_20" function="internal">
        <lane id=":1/2_20_0" index="0" speed="13.90" length="9.23" shape="920.05,1821.98 920.78,1820.78 923.81,1818.96 928.05,1818.35"/>
    </edge>
    <edge id=":1/2_21" function="internal">
        <lane id=":1/2_21_0" index="0" speed="13.90" length="2.41" shape="920.00,1826.40 920.83,1826.81 921.65,1828.05"/>
    </edge>
    <edge id=":1/2_5" function="internal">
        <lane id=":1/2_5_0" index="0" speed="13.90" length="5.00" shape="928.05,1824.95 926.69,1825.14 925.73,1825.73 925.14,1826.69 924.95,1828.05"/>
    </edge>
    <edge id=":1/2_6" function="internal">
        <lane id=":1/2_6_0" index="0" speed="13.90" length="16.10" shape="928.05,1824.95 911.95,1824.95"/>
        <lane id=":1/2_6_1" index="1" speed="13.90" length="16.10" shape="928.05,1821.65 911.95,1821.65"/>
    </edge>
    <edge id=":1/2_8" function="internal">
        <lane id=":1/2_8_0" index="0" speed="13.90" length="15.64" shape="928.05,1821.65 923.81,1821.04 920.77,1819.23 918.96,1816.19 918.35,1811.95"/>
    </edge>
    <edge id=":1/2_9" function="internal">
        <lane id=":1/2_9_0" index="0" speed="13.90" length="4.82" shape="928.05,1821.65 926.81,1820.83 926.40,1820.00 926.81,1819.17 928.05,1818.35"/>
    </edge>
    <edge id=":1/2_10" function="internal">
        <lane id=":1/2_10_0" index="0" speed="13.90" length="5.00" shape="924.95,1811.95 925.14,1813.31 925.73,1814.28 926.69,1814.86 928.05,1815.05"/>
    </edge>
    <edge id=":1/2_11" function="internal">
        <lane id=":1/2_11_0" index="0" speed="13.90" length="16.10" shape="924.95,1811.95 924.95,1828.05"/>
        <lane id=":1/2_11_1" index="1" speed="13.90" length="16.10" shape="921.65,1811.95 921.65,1828.05"/>
    </edge>
    <edge id=":1/2_13" function="internal">
        <lane id=":1/2_13_0" index="0" speed="13.90" length="6.41" shape="921.65,1811.95 921.04,1816.19 919.95,1818.02"/>
    </edge>
    <edge id=":1/2_14" function="internal">
        <lane id=":1/2_14_0" index="0" speed="13.90" length="2.41" shape="921.65,1811.95 920.83,1813.19 920.00,1813.60"/>
    </edge>
    <edge id=":1/2_22" function="internal">
        <lane id=":1/2_22_0" index="0" speed="13.90" length="9.23" shape="919.95,1818.02 919.22,1819.22 916.19,1821.04 911.95,1821.65"/>
    </edge>
    <edge id=":1/2_23" function="internal">
        <lane id=":1/2_23_0" index="0" speed="13.90" length="2.41" shape="920.00,1813.60 919.17,1813.19 918.35,1811.95"/>
    </edge>
    <edge id=":1/2_15" function="internal">
        <lane id=":1/2_15_0" index="0" speed="13.90" length="5.00" shape="911.95,1815.05 913.31,1814.86 914.27,1814.27 914.86,1813.31 915.05,1811.95"/>
    </edge>
    <edge id=":1/2_16" function="internal">
        <lane id=":1/2_16_0" index="0" speed="13.90" length="16.10" shape="911.95,1815.05 928.05,1815.05"/>
        <lane id=":1/2_16_1" index="1" speed="13.90" length="16.10" shape="911.95,1818.35 928.05,1818.35"/>
    </edge>
    <edge id=":1/2_18" function="internal">
        <lane id=":1/2_18_0" index="0" speed="13.90" length="15.64" shape="911.95,1818.35 916.19,1818.96 919.23,1820.77 921.04,1823.81 921.65,1828.05"/>
    </edge>
    <edge id=":1/2_19" function="internal">
        <lane id=":1/2_19_0" index="0" speed="13.90" length="4.82" shape="911.95,1818.35 913.19,1819.18 913.60,1820.00 913.19,1820.83 911.95,1821.65"/>
    </edge>
    <edge id=":1/3_0" function="internal">
        <lane id=":1/3_0_0" index="0" speed="13.90" length="16.10" shape="928.05,2724.95 911.95,2724.95"/>
        <lane id=":1/3_0_1" index="1" speed="13.90" length="16.10" shape="928.05,2721.65 911.95,2721.65"/>
    </edge>
    <edge id=":1/3_2" function="internal">
        <lane id=":1/3_2_0" index="0" speed="13.90" length="6.41" shape="928.05,2721.65 923.81,2721.04 921.98,2719.95"/>
    </edge>
    <edge id=":1/3_3" function="internal">
        <lane id=":1/3_3_0" index="0" speed="13.90" length="2.41" shape="928.05,2721.65 926.81,2720.83 926.40,2720.00"/>
    </edge>
    <edge id=":1/3_11" function="internal">
        <lane id=":1/3_11_0" index="0" speed="13.90" length="9.23" shape="921.98,2719.95 920.77,2719.23 918.96,2716.19 918.35,2711.95"/>
    </edge>
    <edge id=":1/3_12" function="internal">
        <lane id=":1/3_12_0" index="0" speed="13.90" length="2.41" shape="926.40,2720.00 926.81,2719.18 928.05,2718.35"/>
    </edge>
    <edge id=":1/3_4" function="internal">
        <lane id=":1/3_4_0" index="0" speed="13.90" length="5.00" shape="924.95,2711.95 925.14,2713.31 925.73,2714.28 926.69,2714.86 928.05,2715.05"/>
    </edge>
    <edge id=":1/3_5" function="internal">
        <lane id=":1/3_5_0" index="0" speed="13.90" length="15.64" shape="921.65,2711.95 921.04,2716.19 919.22,2719.22 916.19,2721.04 911.95,2721.65"/>
    </edge>
    <edge id=":1/3_6" function="internal">
        <lane id=":1/3_6_0" index="0" speed="13.90" length="4.82" shape="921.65,2711.95 920.83,2713.19 920.00,2713.60 919.17,2713.19 918.35,2711.95"/>
    </edge>
    <edge id=":1/3_7" function="internal">
        <lane id=":1/3_7_0" index="0" speed="13.90" length="5.00" shape="911.95,2715.05 913.31,2714.86 914.27,2714.28 914.86,2713.31 915.05,2711.95"/>
    </edge>
    <edge id=":1/3_8" function="internal">
        <lane id=":1/3_8_0" index="0" speed="13.90" length="16.10" shape="911.95,2715.05 928.05,2715.05"/>
        <lane id=":1/3_8_1" index="1" speed="13.90" length="16.10" shape="911.95,2718.35 928.05,2718.35"/>
    </edge>
    <edge id=":1/3_10" function="internal">
        <lane id=":1/3_10_0" index="0" speed="13.90" length="2.41" shape="911.95,2718.35 913.19,2719.17 913.60,2720.00"/>
    </edge>
    <edge id=":1/3_13" function="internal">
        <lane id=":1/3_13_0" index="0" speed="13.90" length="2.41" shape="913.60,2720.00 913.19,2720.82 911.95,2721.65"/>
    </edge>
    <edge id=":2/0_0" function="internal">
        <lane id=":2/0_0_0" index="0" speed="13.90" length="5.00" shape="1815.05,28.05 1814.86,26.69 1814.27,25.73 1813.31,25.14 1811.95,24.95"/>
    </edge>
    <edge id=":2/0_1" function="internal">
        <lane id=":2/0_1_0" index="0" speed="13.90" length="15.64" shape="1818.35,28.05 1818.96,23.81 1820.77,20.77 1823.81,18.96 1828.05,18.35"/>
    </edge>
    <edge id=":2/0_2" function="internal">
        <lane id=":2/0_2_0" index="0" speed="13.90" length="4.82" shape="1818.35,28.05 1819.18,26.81 1820.00,26.40 1820.83,26.81 1821.65,28.05"/>
    </edge>
    <edge id=":2/0_3" function="internal">
        <lane id=":2/0_3_0" index="0" speed="13.90" length="5.00" shape="1828.05,24.95 1826.69,25.14 1825.72,25.73 1825.14,26.69 1824.95,28.05"/>
    </edge>
    <edge id=":2/0_4" function="internal">
        <lane id=":2/0_4_0" index="0" speed="13.90" length="16.10" shape="1828.05,24.95 1811.95,24.95"/>
        <lane id=":2/0_4_1" index="1" speed="13.90" length="16.10" shape="1828.05,21.65 1811.95,21.65"/>
    </edge>
    <edge id=":2/0_6" function="internal">
        <lane id=":2/0_6_0" index="0" speed="13.90" length="2.41" shape="1828.05,21.65 1826.81,20.83 1826.40,20.00"/>
    </edge>
    <edge id=":2/0_11" function="internal">
        <lane id=":2/0_11_0" index="0" speed="13.90" length="2.41" shape="1826.40,20.00 1826.81,19.18 1828.05,18.35"/>
    </edge>
    <edge id=":2/0_7" function="internal">
        <lane id=":2/0_7_0" index="0" speed="13.90" length="16.10" shape="1811.95,15.05 1828.05,15.05"/>
        <lane id=":2/0_7_1" index="1" speed="13.90" length="16.10" shape="1811.95,18.35 1828.05,18.35"/>
    </edge>
    <edge id=":2/0_9" function="internal">
        <lane id=":2/0_9_0" index="0" speed="13.90" length="6.41" shape="1811.95,18.35 1816.19,18.96 1818.02,20.05"/>
    </edge>
    <edge id=":2/0_10" function="internal">
        <lane id=":2/0_10_0" index="0" speed="13.90" length="2.41" shape="1811.95,18.35 1813.19,19.17 1813.60,20.00"/>
    </edge>
    <edge id=":2/0_12" function="internal">
        <lane id=":2/0_12_0" index="0" speed="13.90" length="9.23" shape="1818.02,20.05 1819.22,20.78 1821.04,23.81 1821.65,28.05"/>
    </edge>
    <edge id=":2/0_13" function="internal">
        <lane id=":2/0_13_0" index="0" speed="13.90" length="2.41" shape="1813.60,20.00 1813.19,20.82 1811.95,21.65"/>
    </edge>
    <edge id=":2/1_0" function="internal">
        <lane id=":2/1_0_0" index="0" speed="13.90" length="5.00" shape="1815.05,928.05 1814.86,926.69 1814.27,925.73 1813.31,925.14 1811.95,924.95"/>
    </edge>
    <edge id=":2/1_1" function="internal">
        <lane id=":2/1_1_0" index="0" speed="13.90" length="16.10" shape="1815.05,928.05 1815.05,911.95"/>
        <lane id=":2/1_1_1" index="1" speed="13.90" length="16.10" shape="1818.35,928.05 1818.35,911.95"/>
    </edge>
    <edge id=":2/1_3" function="internal">
        <lane id=":2/1_3_0" index="0" speed="13.90" length="6.41" shape="1818.35,928.05 1818.96,923.81 1820.05,921.98"/>
    </edge>
    <edge id=":2/1_4" function="internal">
        <lane id=":2/1_4_0" index="0" speed="13.90" length="2.41" shape="1818.35,928.05 1819.18,926.81 1820.00,926.40"/>
    </edge>
    <edge id=":2/1_20" function="internal">
        <lane id=":2/1_20_0" index="0" speed="13.90" length="9.23" shape="1820.05,921.98 1820.77,920.77 1823.81,918.96 1828.05,918.35"/>
    </edge>
    <edge id=":2/1_21" function="internal">
        <lane id=":2/1_21_0" index="0" speed="13.90" length="2.41" shape="1820.00,926.40 1820.83,926.81 1821.65,928.05"/>
    </edge>
    <edge id=":2/1_5" function="internal">
        <lane id=":2/1_5_0" index="0" speed="13.90" length="5.00" shape="1828.05,924.95 1826.69,925.14 1825.72,925.73 1825.14,926.69 1824.95,928.05"/>
    </edge>
    <edge id=":2/1_6" function="internal">
        <lane id=":2/1_6_0" index="0" speed="13.90" length="16.10" shape="1828.05,924.95 1811.95,924.95"/>
        <lane id=":2/1_6_1" index="1" speed="13.90" length="16.10" shape="1828.05,921.65 1811.95,921.65"/>
    </edge>
    <edge id=":2/1_8" function="internal">
        <lane id=":2/1_8_0" index="0" speed="13.90" length="15.64" shape="1828.05,921.65 1823.81,921.04 1820.78,919.22 1818.96,916.19 1818.35,911.95"/>
    </edge>
    <edge id=":2/1_9" function="internal">
        <lane id=":2/1_9_0" index="0" speed="13.90" length="4.82" shape="1828.05,921.65 1826.81,920.83 1826.40,920.00 1826.81,919.17 1828.05,918.35"/>
    </edge>
    <edge id=":2/1_10" function="internal">
        <lane id=":2/1_10_0" index="0" speed="13.90" length="5.00" shape="1824.95,911.95 1825.14,913.31 1825.73,914.27 1826.69,914.86 1828.05,915.05"/>
    </edge>
    <edge id=":2/1_11" function="internal">
        <lane id=":2/1_11_0" index="0" speed="13.90" length="16.10" shape="1824.95,911.95 1824.95,928.05"/>
        <lane id=":2/1_11_1" index="1" speed="13.90" length="16.10" shape="1821.65,911.95 1821.65,928.05"/>
    </edge>
    <edge id=":2/1_13" function="internal">
        <lane id=":2/1_13_0" index="0" speed="13.90" length="6.41" shape="1821.65,911.95 1821.04,916.19 1819.95,918.02"/>
    </edge>
    <edge id=":2/1_14" function="internal">
        <lane id=":2/1_14_0" index="0" speed="13.90" length="2.41" shape="1821.65,911.95 1820.83,913.19 1820.00,913.60"/>
    </edge>
    <edge id=":2/1_22" function="internal">
        <lane id=":2/1_22_0" index="0" speed="13.90" length="9.23" shape="1819.95,918.02 1819.23,919.23 1816.19,921.04 1811.95,921.65"/>
    </edge>
    <edge id=":2/1_23" function="internal">
        <lane id=":2/1_23_0" index="0" speed="13.90" length="2.41" shape="1820.00,913.60 1819.17,913.19 1818.35,911.95"/>
    </edge>
    <edge id=":2/1_15" function="internal">
        <lane id=":2/1_15_0" index="0" speed="13.90" length="5.00" shape="1811.95,915.05 1813.31,914.86 1814.28,914.27 1814.86,913.31 1815.05,911.95"/>
    </edge>
    <edge id=":2/1_16" function="internal">
        <lane id=":2/1_16_0" index="0" speed="13.90" length="16.10" shape="1811.95,915.05 1828.05,915.05"/>
        <lane id=":2/1_16_1" index="1" speed="13.90" length="16.10" shape="1811.95,918.35 1828.05,918.35"/>
    </edge>
    <edge id=":2/1_18" function="internal">
        <lane id=":2/1_18_0" index="0" speed="13.90" length="15.64" shape="1811.95,918.35 1816.19,918.96 1819.22,920.78 1821.04,923.81 1821.65,928.05"/>
    </edge>
    <edge id=":2/1_19" function="internal">
        <lane id=":2/1_19_0" index="0" speed="13.90" length="4.82" shape="1811.95,918.35 1813.19,919.17 1813.60,920.00 1813.19,920.83 1811.95,921.65"/>
    </edge>
    <edge id=":2/2_0" function="internal">
        <lane id=":2/2_0_0" index="0" speed="13.90" length="5.00" shape="1815.05,1828.05 1814.86,1826.69 1814.27,1825.72 1813.31,1825.14 1811.95,1824.95"/>
    </edge>
    <edge id=":2/2_1" function="internal">
        <lane id=":2/2_1_0" index="0" speed="13.90" length="16.10" shape="1815.05,1828.05 1815.05,1811.95"/>
        <lane id=":2/2_1_1" index="1" speed="13.90" length="16.10" shape="1818.35,1828.05 1818.35,1811.95"/>
    </edge>
    <edge id=":2/2_3" function="internal">
        <lane id=":2/2_3_0" index="0" speed="13.90" length="6.41" shape="1818.35,1828.05 1818.96,1823.81 1820.05,1821.98"/>
    </edge>
    <edge id=":2/2_4" function="internal">
        <lane id=":2/2_4_0" index="0" speed="13.90" length="2.41" shape="1818.35,1828.05 1819.18,1826.81 1820.00,1826.40"/>
    </edge>
    <edge id=":2/2_20" function="internal">
        <lane id=":2/2_20_0" index="0" speed="13.90" length="9.23" shape="1820.05,1821.98 1820.77,1820.78 1823.81,1818.96 1828.05,1818.35"/>
    </edge>
    <edge id=":2/2_21" function="internal">
        <lane id=":2/2_21_0" index="0" speed="13.90" length="2.41" shape="1820.00,1826.40 1820.83,1826.81 1821.65,1828.05"/>
    </edge>
    <edge id=":2/2_5" function="internal">
        <lane id=":2/2_5_0" index="0" speed="13.90" length="5.00" shape="1828.05,1824.95 1826.69,1825.14 1825.72,1825.73 1825.14,1826.69 1824.95,1828.05"/>
    </edge>
    <edge id=":2/2_6" function="internal">