<?xml version="1.0" encoding="UTF-8"?>

<!-- generated on Fri Jul 20 08:05:42 2018 by SUMO duarouter Version 0.32.0
<?xml version="1.0" encoding="UTF-8"?>

<configuration xmlns:xsi="http://www.w3.org/2001/XMLSchema-instance" xsi:noNamespaceSchemaLocation="http://sumo.dlr.de/xsd/duarouterConfiguration.xsd">

    <input>
        <net-file value="teor.net.xml"/>
        <route-files value="trips.trips.xml"/>
    </input>

    <output>
        <output-file value="teor.rou.xml"/>
        <alternatives-output value="teor.rou.alt.xml"/>
    </output>

    <processing>
        <ignore-errors value="true"/>
    </processing>

    <time>
        <begin value="0"/>
        <end value="5000.0"/>
    </time>

    <report>
        <no-warnings value="true"/>
        <no-step-log value="true"/>
    </report>

</configuration>
-->

<routes xmlns:xsi="http://www.w3.org/2001/XMLSchema-instance" xsi:noNamespaceSchemaLocation="http://sumo.dlr.de/xsd/routes_file.xsd">
    <vType id="bus" vClass="bus"/>
	<vType id="passenger" vClass="passenger" />
     <vehicle id="0" type="passenger" depart="0.00">
        <route edges="gneE0"/>
		<stop lane="gneE0_0" endPos="9" duration="3000"/>
    </vehicle>
    <vehicle id="1" type="passenger" depart="0.00">
        <route edges="gneE1"/>
		<stop lane="gneE1_0" endPos="9" duration="3000"/>
    </vehicle>
    <vehicle id="2" type="passenger" depart="0.00">
        <route edges="gneE2"/>
		<stop lane="gneE2_0" endPos="9" duration="3000"/>
    </vehicle>
    <vehicle id="3" type="passenger" depart="0.00">
        <route edges="gneE3"/>
		<stop lane="gneE3_0" endPos="9" duration="3000"/>
    </vehicle>
    <vehicle id="4" type="passenger" depart="0.00">
        <route edges="gneE4"/>
 		<stop lane="gneE4_0" endPos="9" duration="3000"/>
    </vehicle>
    <vehicle id="5" type="passenger" depart="0.00">
        <route edges="gneE5"/>
 		<stop lane="gneE5_0" endPos="9" duration="3000"/>
    </vehicle>
    <vehicle id="6" type="passenger" depart="0.00">
        <route edges="gneE6"/>
 		<stop lane="gneE6_0" endPos="9" duration="3000"/>
    </vehicle>
    <vehicle id="7" type="passenger" depart="0.00">
        <route edges="gneE7"/>
 		<stop lane="gneE7_0" endPos="9" duration="3000"/>
    </vehicle>
    <vehicle id="8" type="passenger" depart="0.00">
        <route edges="gneE8"/>
 		<stop lane="gneE8_0" endPos="9" duration="3000"/>
    </vehicle>
<vehicle id="9" type="passenger" depart="1.00">
<route edges= "1/0to1/1 1/1to0/1 0/1to1/1 1/1to2/1 2/1to1/1 1/1to1/2 1/2to0/2 0/2to1/2 1/2to2/2 2/2to1/2 1/2to1/3 1/3to0/3 0/3to1/3 1/3to2/3 2/3to1/3 1/3to1/4 1/4to1/3 1/3to0/3 0/3to1/3 1/3to2/3 2/3to1/3 1/3to1/2 1/2to0/2 0/2to1/2 1/2to2/2 2/2to1/2 1/2to1/1 1/1to0/1 0/1to1/1 1/1to2/1 2/1to1/1 1/1to1/0 1/0to1/1 1/1to0/1 0/1to1/1 1/1to2/1 2/1to1/1 1/1to1/2 1/2to0/2 0/2to1/2 1/2to2/2 2/2to1/2 1/2to1/3 1/3to0/3 0/3to1/3 1/3to2/3 2/3to1/3 1/3to1/4 1/4to1/3 "/> 
</vehicle> 
<vehicle id="10" type="passenger" depart="1.00">
<route edges= "2/0to2/1 2/1to1/1 1/1to2/1 2/1to3/1 3/1to2/1 2/1to2/2 2/2to1/2 1/2to2/2 2/2to3/2 3/2to2/2 2/2to2/3 2/3to1/3 1/3to2/3 2/3to3/3 3/3to2/3 2/3to2/4 2/4to2/3 2/3to1/3 1/3to2/3 2/3to3/3 3/3to2/3 2/3to2/2 2/2to1/2 1/2to2/2 2/2to3/2 3/2to2/2 2/2to2/1 2/1to1/1 1/1to2/1 2/1to3/1 3/1to2/1 2/1to2/0 2/0to2/1 2/1to1/1 1/1to2/1 2/1to3/1 3/1to2/1 2/1to2/2 2/2to1/2 1/2to2/2 2/2to3/2 3/2to2/2 2/2to2/3 2/3to1/3 1/3to2/3 2/3to3/3 3/3to2/3 2/3to2/4 2/4to2/3 "/> 
</vehicle> 
<vehicle id="11" type="passenger" depart="1.00">
<route edges= "3/0to3/1 3/1to2/1 2/1to3/1 3/1to4/1 4/1to3/1 3/1to3/2 3/2to2/2 2/2to3/2 3/2to4/2 4/2to3/2 3/2to3/3 3/3to2/3 2/3to3/3 3/3to4/3 4/3to3/3 3/3to3/4 3/4to3/3 3/3to2/3 2/3to3/3 3/3to4/3 4/3to3/3 3/3to3/2 3/2to2/2 2/2to3/2 3/2to4/2 4/2to3/2 3/2to3/1 3/1to2/1 2/1to3/1 3/1to4/1 4/1to3/1 3/1to3/0 3/0to3/1 3/1to2/1 2/1to3/1 3/1to4/1 4/1to3/1 3/1to3/2 3/2to2/2 2/2to3/2 3/2to4/2 4/2to3/2 3/2to3/3 3/3to2/3 2/3to3/3 3/3to4/3 4/3to3/3 3/3to3/4 3/4to3/3 "/> 
</vehicle> 
<!--
<vehicle id="9" type="passenger" depart="2.00">
<route edges= "1/0to1/1 1/1to2/1 2/1to3/1 3/1to4/1 4/1to3/1 3/1to2/1 2/1to1/1 1/1to0/1 0/1to1/1 1/1to2/1 2/1to3/1 3/1to3/0 3/0to3/1 3/1to2/1 2/1to2/2 2/2to1/2 1/2to0/2 0/2to1/2 1/2to2/2 2/2to3/2 3/2to4/2 4/2to3/2 3/2to2/2 2/2to2/3 2/3to3/3 3/3to3/2 3/2to3/1 3/1to4/1 4/1to3/1 3/1to2/1 2/1to1/1 1/1to1/2 1/2to1/3 1/3to2/3 2/3to3/3 3/3to3/2 3/2to3/1 3/1to3/0 3/0to3/1 3/1to3/2 3/2to3/3 3/3to4/3 4/3to3/3 3/3to2/3 2/3to2/2 2/2to3/2 3/2to4/2 4/2to3/2 "/> 
</vehicle> 
<vehicle id="10" type="passenger" depart="2.00">
<route edges= "3/3to4/3 4/3to3/3 3/3to3/4 3/4to3/3 3/3to3/2 3/2to3/1 3/1to3/0 3/0to3/1 3/1to4/1 4/1to3/1 3/1to2/1 2/1to1/1 1/1to0/1 0/1to1/1 1/1to2/1 2/1to3/1 3/1to4/1 4/1to3/1 3/1to3/2 3/2to3/3 3/3to3/4 3/4to3/3 3/3to3/2 3/2to4/2 4/2to3/2 3/2to3/3 3/3to3/4 3/4to3/3 3/3to3/2 3/2to2/2 2/2to1/2 1/2to0/2 0/2to1/2 1/2to2/2 2/2to3/2 3/2to4/2 4/2to3/2 3/2to2/2 2/2to1/2 1/2to0/2 0/2to1/2 1/2to2/2 2/2to2/3 2/3to2/4 2/4to2/3 2/3to2/2 2/2to2/1 2/1to1/1 "/> 
</vehicle> 
<vehicle id="11" type="passenger" depart="2.00">
<route edges= "3/1to4/1 4/1to3/1 3/1to2/1 2/1to1/1 1/1to0/1 0/1to1/1 1/1to1/0 1/0to1/1 1/1to1/2 1/2to1/3 1/3to1/4 1/4to1/3 1/3to1/2 1/2to1/1 1/1to1/0 1/0to1/1 1/1to0/1 0/1to1/1 1/1to2/1 2/1to3/1 3/1to3/0 3/0to3/1 3/1to3/2 3/2to3/3 3/3to3/4 3/4to3/3 3/3to4/3 4/3to3/3 3/3to3/2 3/2to3/1 3/1to3/0 3/0to3/1 3/1to4/1 4/1to3/1 3/1to2/1 2/1to1/1 1/1to0/1 0/1to1/1 1/1to2/1 2/1to3/1 3/1to3/0 3/0to3/1 3/1to3/2 3/2to4/2 4/2to3/2 3/2to2/2 2/2to2/1 2/1to2/0 "/> 
</vehicle> 
-->
<vehicle id="12" type="passenger" depart="2.00">
<route edges= "0/1to1/1 1/1to2/1 2/1to2/0 2/0to2/1 2/1to2/2 2/2to2/3 2/3to3/3 3/3to4/3 4/3to3/3 3/3to3/2 3/2to3/1 3/1to4/1 4/1to3/1 3/1to3/2 3/2to3/3 3/3to3/4 3/4to3/3 3/3to2/3 2/3to2/2 2/2to3/2 3/2to4/2 4/2to3/2 3/2to2/2 2/2to1/2 1/2to0/2 0/2to1/2 1/2to2/2 2/2to3/2 3/2to3/3 3/3to3/4 3/4to3/3 3/3to3/2 3/2to3/1 3/1to2/1 2/1to2/2 2/2to1/2 1/2to0/2 0/2to1/2 1/2to2/2 2/2to3/2 3/2to4/2 4/2to3/2 3/2to3/3 3/3to3/4 3/4to3/3 3/3to3/2 3/2to3/1 3/1to2/1 "/> 
</vehicle> 
<vehicle id="13" type="passenger" depart="2.00">
<route edges= "1/3to2/3 2/3to3/3 3/3to4/3 4/3to3/3 3/3to2/3 2/3to2/2 2/2to3/2 3/2to3/1 3/1to3/0 3/0to3/1 3/1to3/2 3/2to3/3 3/3to3/4 3/4to3/3 3/3to3/2 3/2to3/1 3/1to3/0 3/0to3/1 3/1to4/1 4/1to3/1 3/1to2/1 2/1to1/1 1/1to0/1 0/1to1/1 1/1to2/1 2/1to3/1 3/1to3/2 3/2to3/3 3/3to2/3 2/3to2/4 2/4to2/3 2/3to2/2 2/2to2/1 2/1to3/1 3/1to4/1 4/1to3/1 3/1to2/1 2/1to1/1 1/1to1/2 1/2to2/2 2/2to3/2 3/2to3/1 3/1to4/1 4/1to3/1 3/1to3/0 3/0to3/1 3/1to3/2 3/2to3/3 "/> 
</vehicle> 
<vehicle id="14" type="passenger" depart="2.00">
<route edges= "1/1to2/1 2/1to3/1 3/1to4/1 4/1to3/1 3/1to2/1 2/1to1/1 1/1to1/2 1/2to1/3 1/3to0/3 0/3to1/3 1/3to1/4 1/4to1/3 1/3to1/2 1/2to2/2 2/2to2/1 2/1to1/1 1/1to0/1 0/1to1/1 1/1to2/1 2/1to3/1 3/1to4/1 4/1to3/1 3/1to2/1 2/1to1/1 1/1to1/0 1/0to1/1 1/1to1/2 1/2to1/3 1/3to1/4 1/4to1/3 1/3to1/2 1/2to1/1 1/1to1/0 1/0to1/1 1/1to1/2 1/2to2/2 2/2to3/2 3/2to4/2 4/2to3/2 3/2to2/2 2/2to1/2 1/2to0/2 0/2to1/2 1/2to1/3 1/3to1/4 1/4to1/3 1/3to1/2 1/2to2/2 "/> 
</vehicle> 
<vehicle id="15" type="passenger" depart="2.00">
<route edges= "1/0to1/1 1/1to2/1 2/1to3/1 3/1to3/0 3/0to3/1 3/1to3/2 3/2to3/3 3/3to3/4 3/4to3/3 3/3to3/2 3/2to3/1 3/1to3/0 3/0to3/1 3/1to3/2 3/2to3/3 3/3to3/4 3/4to3/3 3/3to3/2 3/2to3/1 3/1to4/1 4/1to3/1 3/1to2/1 2/1to1/1 1/1to1/2 1/2to1/3 1/3to2/3 2/3to3/3 3/3to4/3 4/3to3/3 3/3to3/4 3/4to3/3 3/3to3/2 3/2to3/1 3/1to2/1 2/1to2/2 2/2to3/2 3/2to4/2 4/2to3/2 3/2to2/2 2/2to2/3 2/3to2/4 2/4to2/3 2/3to1/3 1/3to1/2 1/2to1/1 1/1to1/0 1/0to1/1 1/1to1/2 "/> 
</vehicle> 
<vehicle id="16" type="passenger" depart="2.00">
<route edges= "0/3to1/3 1/3to2/3 2/3to3/3 3/3to4/3 4/3to3/3 3/3to2/3 2/3to2/4 2/4to2/3 2/3to2/2 2/2to2/1 2/1to2/0 2/0to2/1 2/1to2/2 2/2to2/3 2/3to2/4 2/4to2/3 2/3to1/3 1/3to0/3 0/3to1/3 1/3to1/2 1/2to0/2 0/2to1/2 1/2to2/2 2/2to3/2 3/2to3/3 3/3to2/3 2/3to2/2 2/2to2/1 2/1to2/0 2/0to2/1 2/1to2/2 2/2to2/3 2/3to2/4 2/4to2/3 2/3to3/3 3/3to4/3 4/3to3/3 3/3to2/3 2/3to1/3 1/3to1/2 1/2to1/1 1/1to2/1 2/1to2/2 2/2to1/2 1/2to0/2 0/2to1/2 1/2to1/3 1/3to1/4 "/> 
</vehicle> 
<vehicle id="17" type="passenger" depart="2.00">
<route edges= "1/1to0/1 0/1to1/1 1/1to2/1 2/1to2/0 2/0to2/1 2/1to2/2 2/2to1/2 1/2to0/2 0/2to1/2 1/2to2/2 2/2to3/2 3/2to4/2 4/2to3/2 3/2to2/2 2/2to1/2 1/2to0/2 0/2to1/2 1/2to2/2 2/2to2/3 2/3to2/4 2/4to2/3 2/3to1/3 1/3to0/3 0/3to1/3 1/3to2/3 2/3to2/2 2/2to3/2 3/2to3/1 3/1to2/1 2/1to1/1 1/1to0/1 0/1to1/1 1/1to2/1 2/1to2/0 2/0to2/1 2/1to2/2 2/2to2/3 2/3to1/3 1/3to0/3 0/3to1/3 1/3to2/3 2/3to2/2 2/2to2/1 2/1to3/1 3/1to4/1 4/1to3/1 3/1to3/2 3/2to3/3 "/> 
</vehicle> 
<vehicle id="18" type="passenger" depart="2.00">
<route edges= "3/1to4/1 4/1to3/1 3/1to2/1 2/1to1/1 1/1to0/1 0/1to1/1 1/1to2/1 2/1to3/1 3/1to3/2 3/2to3/3 3/3to3/4 3/4to3/3 3/3to3/2 3/2to3/1 3/1to3/0 3/0to3/1 3/1to3/2 3/2to2/2 2/2to1/2 1/2to1/3 1/3to1/4 1/4to1/3 1/3to0/3 0/3to1/3 1/3to2/3 2/3to3/3 3/3to4/3 4/3to3/3 3/3to3/2 3/2to4/2 4/2to3/2 3/2to2/2 2/2to1/2 1/2to0/2 0/2to1/2 1/2to2/2 2/2to2/3 2/3to3/3 3/3to4/3 4/3to3/3 3/3to2/3 2/3to1/3 1/3to1/4 1/4to1/3 1/3to1/2 1/2to1/1 1/1to1/0 1/0to1/1 "/> 
</vehicle> 
<vehicle id="19" type="passenger" depart="2.00">
<route edges= "3/1to3/2 3/2to3/3 3/3to3/4 3/4to3/3 3/3to3/2 3/2to3/1 3/1to3/0 3/0to3/1 3/1to4/1 4/1to3/1 3/1to3/0 3/0to3/1 3/1to3/2 3/2to3/3 3/3to3/4 3/4to3/3 3/3to2/3 2/3to2/4 2/4to2/3 2/3to2/2 2/2to2/1 2/1to2/0 2/0to2/1 2/1to3/1 3/1to3/2 3/2to2/2 2/2to1/2 1/2to0/2 0/2to1/2 1/2to2/2 2/2to3/2 3/2to4/2 4/2to3/2 3/2to3/1 3/1to3/0 3/0to3/1 3/1to2/1 2/1to1/1 1/1to0/1 0/1to1/1 1/1to1/0 1/0to1/1 1/1to1/2 1/2to1/3 1/3to1/4 1/4to1/3 1/3to1/2 1/2to1/1 "/> 
</vehicle> 
<vehicle id="20" type="passenger" depart="2.00">
<route edges= "1/1to1/2 1/2to1/3 1/3to1/4 1/4to1/3 1/3to0/3 0/3to1/3 1/3to2/3 2/3to3/3 3/3to4/3 4/3to3/3 3/3to2/3 2/3to1/3 1/3to0/3 0/3to1/3 1/3to2/3 2/3to2/2 2/2to2/1 2/1to2/0 2/0to2/1 2/1to2/2 2/2to2/3 2/3to3/3 3/3to4/3 4/3to3/3 3/3to2/3 2/3to2/2 2/2to2/1 2/1to1/1 1/1to0/1 0/1to1/1 1/1to2/1 2/1to2/2 2/2to2/3 2/3to2/4 2/4to2/3 2/3to1/3 1/3to0/3 0/3to1/3 1/3to2/3 2/3to2/4 2/4to2/3 2/3to2/2 2/2to3/2 3/2to4/2 4/2to3/2 3/2to2/2 2/2to2/3 2/3to2/4 "/> 
</vehicle> 
<vehicle id="21" type="passenger" depart="2.00">
<route edges= "1/1to2/1 2/1to3/1 3/1to4/1 4/1to3/1 3/1to2/1 2/1to1/1 1/1to1/0 1/0to1/1 1/1to1/2 1/2to1/3 1/3to2/3 2/3to3/3 3/3to4/3 4/3to3/3 3/3to3/2 3/2to2/2 2/2to1/2 1/2to0/2 0/2to1/2 1/2to2/2 2/2to3/2 3/2to4/2 4/2to3/2 3/2to2/2 2/2to1/2 1/2to0/2 0/2to1/2 1/2to1/3 1/3to1/4 1/4to1/3 1/3to0/3 0/3to1/3 1/3to2/3 2/3to3/3 3/3to3/2 3/2to4/2 4/2to3/2 3/2to3/1 3/1to3/0 3/0to3/1 3/1to3/2 3/2to3/3 3/3to3/4 3/4to3/3 3/3to3/2 3/2to4/2 4/2to3/2 3/2to2/2 "/> 
</vehicle> 
<vehicle id="22" type="passenger" depart="2.00">
<route edges= "1/0to1/1 1/1to0/1 0/1to1/1 1/1to2/1 2/1to3/1 3/1to4/1 4/1to3/1 3/1to2/1 2/1to1/1 1/1to0/1 0/1to1/1 1/1to2/1 2/1to3/1 3/1to4/1 4/1to3/1 3/1to3/0 3/0to3/1 3/1to3/2 3/2to2/2 2/2to1/2 1/2to0/2 0/2to1/2 1/2to2/2 2/2to3/2 3/2to4/2 4/2to3/2 3/2to2/2 2/2to2/3 2/3to2/4 2/4to2/3 2/3to3/3 3/3to4/3 4/3to3/3 3/3to2/3 2/3to2/4 2/4to2/3 2/3to2/2 2/2to2/1 2/1to2/0 2/0to2/1 2/1to2/2 2/2to1/2 1/2to0/2 0/2to1/2 1/2to2/2 2/2to2/1 2/1to2/0 2/0to2/1 "/> 
</vehicle> 
<vehicle id="23" type="passenger" depart="2.00">
<route edges= "3/1to4/1 4/1to3/1 3/1to2/1 2/1to1/1 1/1to0/1 0/1to1/1 1/1to2/1 2/1to2/0 2/0to2/1 2/1to2/2 2/2to2/3 2/3to2/4 2/4to2/3 2/3to2/2 2/2to2/1 2/1to2/0 2/0to2/1 2/1to2/2 2/2to3/2 3/2to3/1 3/1to4/1 4/1to3/1 3/1to2/1 2/1to1/1 1/1to0/1 0/1to1/1 1/1to1/2 1/2to1/3 1/3to1/4 1/4to1/3 1/3to0/3 0/3to1/3 1/3to2/3 2/3to2/4 2/4to2/3 2/3to2/2 2/2to2/1 2/1to2/0 2/0to2/1 2/1to2/2 2/2to3/2 3/2to4/2 4/2to3/2 3/2to2/2 2/2to1/2 1/2to0/2 0/2to1/2 1/2to2/2 "/> 
</vehicle> 
<vehicle id="24" type="passenger" depart="2.00">
<route edges= "1/3to1/4 1/4to1/3 1/3to1/2 1/2to1/1 1/1to0/1 0/1to1/1 1/1to1/0 1/0to1/1 1/1to1/2 1/2to1/3 1/3to1/4 1/4to1/3 1/3to1/2 1/2to1/1 1/1to1/0 1/0to1/1 1/1to1/2 1/2to1/3 1/3to1/4 1/4to1/3 1/3to1/2 1/2to1/1 1/1to1/0 1/0to1/1 1/1to1/2 1/2to1/3 1/3to0/3 0/3to1/3 1/3to2/3 2/3to2/4 2/4to2/3 2/3to2/2 2/2to3/2 3/2to3/1 3/1to4/1 4/1to3/1 3/1to2/1 2/1to1/1 1/1to0/1 0/1to1/1 1/1to2/1 2/1to2/0 2/0to2/1 2/1to2/2 2/2to2/3 2/3to2/4 2/4to2/3 2/3to1/3 "/> 
</vehicle> 
<vehicle id="25" type="passenger" depart="2.00">
<route edges= "1/1to1/2 1/2to2/2 2/2to3/2 3/2to3/1 3/1to2/1 2/1to2/0 2/0to2/1 2/1to1/1 1/1to0/1 0/1to1/1 1/1to2/1 2/1to3/1 3/1to3/2 3/2to2/2 2/2to1/2 1/2to0/2 0/2to1/2 1/2to1/3 1/3to1/4 1/4to1/3 1/3to1/2 1/2to1/1 1/1to1/0 1/0to1/1 1/1to1/2 1/2to2/2 2/2to3/2 3/2to4/2 4/2to3/2 3/2to2/2 2/2to2/3 2/3to2/4 2/4to2/3 2/3to2/2 2/2to3/2 3/2to4/2 4/2to3/2 3/2to2/2 2/2to1/2 1/2to1/3 1/3to1/4 1/4to1/3 1/3to1/2 1/2to1/1 1/1to1/0 1/0to1/1 1/1to1/2 1/2to1/3 "/> 
</vehicle> 
<vehicle id="26" type="passenger" depart="2.00">
<route edges= "0/1to1/1 1/1to2/1 2/1to2/2 2/2to2/3 2/3to2/4 2/4to2/3 2/3to1/3 1/3to0/3 0/3to1/3 1/3to2/3 2/3to3/3 3/3to4/3 4/3to3/3 3/3to2/3 2/3to2/2 2/2to1/2 1/2to0/2 0/2to1/2 1/2to2/2 2/2to3/2 3/2to4/2 4/2to3/2 3/2to3/1 3/1to3/0 3/0to3/1 3/1to3/2 3/2to3/3 3/3to2/3 2/3to1/3 1/3to0/3 0/3to1/3 1/3to2/3 2/3to3/3 3/3to3/4 3/4to3/3 3/3to3/2 3/2to3/1 3/1to2/1 2/1to1/1 1/1to0/1 0/1to1/1 1/1to2/1 2/1to3/1 3/1to3/2 3/2to3/3 3/3to2/3 2/3to1/3 1/3to0/3 "/> 
</vehicle> 
<vehicle id="27" type="passenger" depart="2.00">
<route edges= "0/1to1/1 1/1to2/1 2/1to3/1 3/1to4/1 4/1to3/1 3/1to2/1 2/1to1/1 1/1to0/1 0/1to1/1 1/1to2/1 2/1to3/1 3/1to4/1 4/1to3/1 3/1to2/1 2/1to2/0 2/0to2/1 2/1to3/1 3/1to3/2 3/2to3/3 3/3to3/4 3/4to3/3 3/3to3/2 3/2to3/1 3/1to3/0 3/0to3/1 3/1to3/2 3/2to3/3 3/3to3/4 3/4to3/3 3/3to4/3 4/3to3/3 3/3to3/2 3/2to3/1 3/1to2/1 2/1to1/1 1/1to0/1 0/1to1/1 1/1to2/1 2/1to3/1 3/1to4/1 4/1to3/1 3/1to3/2 3/2to3/3 3/3to4/3 4/3to3/3 3/3to3/2 3/2to3/1 3/1to3/0 "/> 
</vehicle> 
<vehicle id="28" type="passenger" depart="2.00">
<route edges= "1/1to2/1 2/1to2/2 2/2to2/3 2/3to2/4 2/4to2/3 2/3to2/2 2/2to1/2 1/2to0/2 0/2to1/2 1/2to2/2 2/2to3/2 3/2to4/2 4/2to3/2 3/2to3/3 3/3to3/4 3/4to3/3 3/3to3/2 3/2to4/2 4/2to3/2 3/2to3/1 3/1to3/0 3/0to3/1 3/1to2/1 2/1to2/0 2/0to2/1 2/1to2/2 2/2to2/3 2/3to2/4 2/4to2/3 2/3to1/3 1/3to0/3 0/3to1/3 1/3to1/4 1/4to1/3 1/3to2/3 2/3to3/3 3/3to4/3 4/3to3/3 3/3to2/3 2/3to1/3 1/3to1/2 1/2to1/1 1/1to0/1 0/1to1/1 1/1to2/1 2/1to3/1 3/1to3/0 3/0to3/1 "/> 
</vehicle> 
<vehicle id="29" type="passenger" depart="2.00">
<route edges= "3/1to4/1 4/1to3/1 3/1to2/1 2/1to2/2 2/2to2/3 2/3to2/4 2/4to2/3 2/3to2/2 2/2to2/1 2/1to2/0 2/0to2/1 2/1to1/1 1/1to1/2 1/2to1/3 1/3to1/4 1/4to1/3 1/3to1/2 1/2to2/2 2/2to3/2 3/2to4/2 4/2to3/2 3/2to2/2 2/2to1/2 1/2to1/1 1/1to0/1 0/1to1/1 1/1to2/1 2/1to2/2 2/2to2/3 2/3to2/4 2/4to2/3 2/3to2/2 2/2to2/1 2/1to2/0 2/0to2/1 2/1to3/1 3/1to4/1 4/1to3/1 3/1to2/1 2/1to2/0 2/0to2/1 2/1to2/2 2/2to2/3 2/3to2/4 2/4to2/3 2/3to2/2 2/2to2/1 2/1to2/0 "/> 
</vehicle> 
<vehicle id="30" type="passenger" depart="2.00">
<route edges= "1/3to2/3 2/3to3/3 3/3to3/2 3/2to3/1 3/1to2/1 2/1to1/1 1/1to0/1 0/1to1/1 1/1to2/1 2/1to3/1 3/1to4/1 4/1to3/1 3/1to2/1 2/1to1/1 1/1to0/1 0/1to1/1 1/1to2/1 2/1to2/2 2/2to2/3 2/3to1/3 1/3to0/3 0/3to1/3 1/3to1/4 1/4to1/3 1/3to1/2 1/2to1/1 1/1to1/0 1/0to1/1 1/1to0/1 0/1to1/1 1/1to2/1 2/1to3/1 3/1to4/1 4/1to3/1 3/1to3/0 3/0to3/1 3/1to3/2 3/2to3/3 3/3to3/4 3/4to3/3 3/3to3/2 3/2to3/1 3/1to3/0 3/0to3/1 3/1to3/2 3/2to2/2 2/2to1/2 1/2to1/1 "/> 
</vehicle> 
<vehicle id="31" type="passenger" depart="2.00">
<route edges= "1/3to0/3 0/3to1/3 1/3to2/3 2/3to3/3 3/3to4/3 4/3to3/3 3/3to2/3 2/3to1/3 1/3to0/3 0/3to1/3 1/3to2/3 2/3to2/2 2/2to2/1 2/1to2/0 2/0to2/1 2/1to1/1 1/1to0/1 0/1to1/1 1/1to2/1 2/1to2/0 2/0to2/1 2/1to1/1 1/1to1/2 1/2to2/2 2/2to3/2 3/2to4/2 4/2to3/2 3/2to2/2 2/2to1/2 1/2to0/2 0/2to1/2 1/2to2/2 2/2to3/2 3/2to4/2 4/2to3/2 3/2to2/2 2/2to2/1 2/1to2/0 2/0to2/1 2/1to2/2 2/2to2/3 2/3to2/4 2/4to2/3 2/3to3/3 3/3to4/3 4/3to3/3 3/3to3/4 3/4to3/3 "/> 
</vehicle> 
<vehicle id="32" type="passenger" depart="2.00">
<route edges= "1/0to1/1 1/1to0/1 0/1to1/1 1/1to2/1 2/1to2/0 2/0to2/1 2/1to2/2 2/2to3/2 3/2to3/1 3/1to3/0 3/0to3/1 3/1to3/2 3/2to3/3 3/3to2/3 2/3to1/3 1/3to1/2 1/2to1/1 1/1to1/0 1/0to1/1 1/1to1/2 1/2to2/2 2/2to3/2 3/2to4/2 4/2to3/2 3/2to2/2 2/2to2/3 2/3to2/4 2/4to2/3 2/3to2/2 2/2to2/1 2/1to2/0 2/0to2/1 2/1to2/2 2/2to2/3 2/3to2/4 2/4to2/3 2/3to2/2 2/2to1/2 1/2to1/3 1/3to1/4 1/4to1/3 1/3to0/3 0/3to1/3 1/3to2/3 2/3to2/2 2/2to2/1 2/1to2/0 2/0to2/1 "/> 
</vehicle> 
<vehicle id="33" type="passenger" depart="2.00">
<route edges= "3/1to4/1 4/1to3/1 3/1to2/1 2/1to1/1 1/1to1/2 1/2to0/2 0/2to1/2 1/2to2/2 2/2to3/2 3/2to3/3 3/3to2/3 2/3to1/3 1/3to1/4 1/4to1/3 1/3to1/2 1/2to1/1 1/1to1/0 1/0to1/1 1/1to2/1 2/1to3/1 3/1to3/0 3/0to3/1 3/1to3/2 3/2to2/2 2/2to2/3 2/3to2/4 2/4to2/3 2/3to2/2 2/2to3/2 3/2to3/3 3/3to2/3 2/3to1/3 1/3to1/4 1/4to1/3 1/3to0/3 0/3to1/3 1/3to2/3 2/3to3/3 3/3to4/3 4/3to3/3 3/3to2/3 2/3to2/4 2/4to2/3 2/3to2/2 2/2to2/1 2/1to2/0 2/0to2/1 2/1to2/2 "/> 
</vehicle> 
<vehicle id="34" type="passenger" depart="2.00">
<route edges= "3/1to4/1 4/1to3/1 3/1to2/1 2/1to1/1 1/1to0/1 0/1to1/1 1/1to2/1 2/1to3/1 3/1to4/1 4/1to3/1 3/1to2/1 2/1to1/1 1/1to0/1 0/1to1/1 1/1to1/2 1/2to1/3 1/3to1/4 1/4to1/3 1/3to0/3 0/3to1/3 1/3to2/3 2/3to3/3 3/3to4/3 4/3to3/3 3/3to3/4 3/4to3/3 3/3to3/2 3/2to4/2 4/2to3/2 3/2to3/3 3/3to2/3 2/3to2/2 2/2to3/2 3/2to4/2 4/2to3/2 3/2to2/2 2/2to1/2 1/2to0/2 0/2to1/2 1/2to2/2 2/2to3/2 3/2to4/2 4/2to3/2 3/2to3/1 3/1to4/1 4/1to3/1 3/1to2/1 2/1to1/1 "/> 
</vehicle> 
<vehicle id="35" type="passenger" depart="2.00">
<route edges= "0/1to1/1 1/1to2/1 2/1to3/1 3/1to4/1 4/1to3/1 3/1to2/1 2/1to1/1 1/1to1/0 1/0to1/1 1/1to2/1 2/1to2/2 2/2to2/3 2/3to2/4 2/4to2/3 2/3to2/2 2/2to1/2 1/2to0/2 0/2to1/2 1/2to2/2 2/2to3/2 3/2to4/2 4/2to3/2 3/2to3/3 3/3to3/4 3/4to3/3 3/3to3/2 3/2to3/1 3/1to4/1 4/1to3/1 3/1to2/1 2/1to1/1 1/1to1/2 1/2to2/2 2/2to3/2 3/2to4/2 4/2to3/2 3/2to2/2 2/2to2/1 2/1to1/1 1/1to0/1 0/1to1/1 1/1to2/1 2/1to3/1 3/1to4/1 4/1to3/1 3/1to2/1 2/1to1/1 1/1to1/2 "/> 
</vehicle> 
<vehicle id="36" type="passenger" depart="2.00">
<route edges= "1/3to2/3 2/3to3/3 3/3to3/4 3/4to3/3 3/3to2/3 2/3to1/3 1/3to0/3 0/3to1/3 1/3to2/3 2/3to2/2 2/2to2/1 2/1to1/1 1/1to1/2 1/2to0/2 0/2to1/2 1/2to2/2 2/2to3/2 3/2to4/2 4/2to3/2 3/2to2/2 2/2to2/1 2/1to2/0 2/0to2/1 2/1to2/2 2/2to2/3 2/3to2/4 2/4to2/3 2/3to2/2 2/2to2/1 2/1to2/0 2/0to2/1 2/1to3/1 3/1to4/1 4/1to3/1 3/1to2/1 2/1to1/1 1/1to0/1 0/1to1/1 1/1to2/1 2/1to3/1 3/1to4/1 4/1to3/1 3/1to2/1 2/1to2/2 2/2to2/3 2/3to2/4 2/4to2/3 2/3to3/3 "/> 
</vehicle> 
<vehicle id="37" type="passenger" depart="2.00">
<route edges= "3/1to4/1 4/1to3/1 3/1to2/1 2/1to1/1 1/1to1/2 1/2to1/3 1/3to1/4 1/4to1/3 1/3to0/3 0/3to1/3 1/3to2/3 2/3to3/3 3/3to4/3 4/3to3/3 3/3to2/3 2/3to1/3 1/3to0/3 0/3to1/3 1/3to1/4 1/4to1/3 1/3to1/2 1/2to1/1 1/1to0/1 0/1to1/1 1/1to2/1 2/1to3/1 3/1to4/1 4/1to3/1 3/1to2/1 2/1to1/1 1/1to1/2 1/2to1/3 1/3to2/3 2/3to3/3 3/3to4/3 4/3to3/3 3/3to2/3 2/3to1/3 1/3to0/3 0/3to1/3 1/3to2/3 2/3to3/3 3/3to4/3 4/3to3/3 3/3to3/2 3/2to3/1 3/1to2/1 2/1to1/1 "/> 
</vehicle> 
<vehicle id="38" type="passenger" depart="2.00">
<route edges= "1/3to0/3 0/3to1/3 1/3to2/3 2/3to3/3 3/3to4/3 4/3to3/3 3/3to3/2 3/2to3/1 3/1to4/1 4/1to3/1 3/1to3/2 3/2to4/2 4/2to3/2 3/2to2/2 2/2to2/1 2/1to2/0 2/0to2/1 2/1to2/2 2/2to1/2 1/2to0/2 0/2to1/2 1/2to2/2 2/2to3/2 3/2to4/2 4/2to3/2 3/2to2/2 2/2to1/2 1/2to0/2 0/2to1/2 1/2to2/2 2/2to3/2 3/2to4/2 4/2to3/2 3/2to3/1 3/1to3/0 3/0to3/1 3/1to3/2 3/2to3/3 3/3to2/3 2/3to1/3 1/3to0/3 0/3to1/3 1/3to2/3 2/3to3/3 3/3to4/3 4/3to3/3 3/3to3/4 3/4to3/3 "/> 
</vehicle> 
<vehicle id="39" type="passenger" depart="2.00">
<route edges= "1/1to2/1 2/1to3/1 3/1to4/1 4/1to3/1 3/1to3/2 3/2to3/3 3/3to3/4 3/4to3/3 3/3to3/2 3/2to3/1 3/1to3/0 3/0to3/1 3/1to3/2 3/2to3/3 3/3to2/3 2/3to1/3 1/3to0/3 0/3to1/3 1/3to2/3 2/3to2/2 2/2to3/2 3/2to4/2 4/2to3/2 3/2to3/1 3/1to3/0 3/0to3/1 3/1to2/1 2/1to2/0 2/0to2/1 2/1to2/2 2/2to2/3 2/3to2/4 2/4to2/3 2/3to2/2 2/2to2/1 2/1to2/0 2/0to2/1 2/1to2/2 2/2to2/3 2/3to2/4 2/4to2/3 2/3to2/2 2/2to2/1 2/1to1/1 1/1to0/1 0/1to1/1 1/1to2/1 2/1to3/1 "/> 
</vehicle> 
<vehicle id="40" type="passenger" depart="2.00">
<route edges= "1/1to2/1 2/1to2/0 2/0to2/1 2/1to1/1 1/1to0/1 0/1to1/1 1/1to2/1 2/1to3/1 3/1to4/1 4/1to3/1 3/1to2/1 2/1to2/2 2/2to2/3 2/3to2/4 2/4to2/3 2/3to2/2 2/2to1/2 1/2to0/2 0/2to1/2 1/2to1/3 1/3to1/4 1/4to1/3 1/3to1/2 1/2to2/2 2/2to3/2 3/2to4/2 4/2to3/2 3/2to3/1 3/1to3/0 3/0to3/1 3/1to3/2 3/2to3/3 3/3to3/4 3/4to3/3 3/3to3/2 3/2to3/1 3/1to3/0 3/0to3/1 3/1to3/2 3/2to3/3 3/3to3/4 3/4to3/3 3/3to3/2 3/2to4/2 4/2to3/2 3/2to3/1 3/1to2/1 2/1to1/1 "/> 
</vehicle> 
<vehicle id="41" type="passenger" depart="2.00">
<route edges= "1/1to2/1 2/1to3/1 3/1to3/0 3/0to3/1 3/1to3/2 3/2to2/2 2/2to2/1 2/1to2/0 2/0to2/1 2/1to2/2 2/2to2/3 2/3to2/4 2/4to2/3 2/3to2/2 2/2to1/2 1/2to0/2 0/2to1/2 1/2to2/2 2/2to3/2 3/2to3/1 3/1to3/0 3/0to3/1 3/1to3/2 3/2to3/3 3/3to3/4 3/4to3/3 3/3to2/3 2/3to1/3 1/3to0/3 0/3to1/3 1/3to2/3 2/3to3/3 3/3to4/3 4/3to3/3 3/3to2/3 2/3to1/3 1/3to0/3 0/3to1/3 1/3to1/2 1/2to1/1 1/1to1/0 1/0to1/1 1/1to0/1 0/1to1/1 1/1to2/1 2/1to2/0 2/0to2/1 2/1to2/2 "/> 
</vehicle> 
<vehicle id="42" type="passenger" depart="2.00">
<route edges= "3/1to4/1 4/1to3/1 3/1to2/1 2/1to1/1 1/1to0/1 0/1to1/1 1/1to2/1 2/1to2/0 2/0to2/1 2/1to2/2 2/2to2/3 2/3to1/3 1/3to0/3 0/3to1/3 1/3to2/3 2/3to2/2 2/2to2/1 2/1to3/1 3/1to4/1 4/1to3/1 3/1to2/1 2/1to1/1 1/1to0/1 0/1to1/1 1/1to2/1 2/1to3/1 3/1to3/2 3/2to2/2 2/2to1/2 1/2to0/2 0/2to1/2 1/2to2/2 2/2to2/1 2/1to1/1 1/1to1/0 1/0to1/1 1/1to1/2 1/2to1/3 1/3to1/4 1/4to1/3 1/3to1/2 1/2to2/2 2/2to3/2 3/2to4/2 4/2to3/2 3/2to3/1 3/1to3/0 3/0to3/1 "/> 
</vehicle> 
<vehicle id="43" type="passenger" depart="2.00">
<route edges= "1/0to1/1 1/1to2/1 2/1to3/1 3/1to4/1 4/1to3/1 3/1to2/1 2/1to1/1 1/1to0/1 0/1to1/1 1/1to1/0 1/0to1/1 1/1to1/2 1/2to1/3 1/3to1/4 1/4to1/3 1/3to1/2 1/2to1/1 1/1to1/0 1/0to1/1 1/1to1/2 1/2to1/3 1/3to1/4 1/4to1/3 1/3to0/3 0/3to1/3 1/3to1/2 1/2to1/1 1/1to1/0 1/0to1/1 1/1to1/2 1/2to0/2 0/2to1/2 1/2to1/3 1/3to0/3 0/3to1/3 1/3to1/4 1/4to1/3 1/3to1/2 1/2to1/1 1/1to2/1 2/1to2/2 2/2to1/2 1/2to0/2 0/2to1/2 1/2to1/3 1/3to1/4 1/4to1/3 1/3to1/2 "/> 
</vehicle> 
<vehicle id="44" type="passenger" depart="2.00">
<route edges= "0/1to1/1 1/1to2/1 2/1to3/1 3/1to4/1 4/1to3/1 3/1to2/1 2/1to1/1 1/1to0/1 0/1to1/1 1/1to2/1 2/1to3/1 3/1to4/1 4/1to3/1 3/1to2/1 2/1to1/1 1/1to0/1 0/1to1/1 1/1to1/2 1/2to1/3 1/3to1/4 1/4to1/3 1/3to1/2 1/2to0/2 0/2to1/2 1/2to2/2 2/2to3/2 3/2to3/1 3/1to3/0 3/0to3/1 3/1to3/2 3/2to3/3 3/3to3/4 3/4to3/3 3/3to2/3 2/3to2/2 2/2to3/2 3/2to4/2 4/2to3/2 3/2to2/2 2/2to2/3 2/3to2/4 2/4to2/3 2/3to3/3 3/3to4/3 4/3to3/3 3/3to2/3 2/3to1/3 1/3to1/4 "/> 
</vehicle> 
<vehicle id="45" type="passenger" depart="2.00">
<route edges= "3/0to3/1 3/1to4/1 4/1to3/1 3/1to2/1 2/1to1/1 1/1to1/2 1/2to0/2 0/2to1/2 1/2to2/2 2/2to3/2 3/2to4/2 4/2to3/2 3/2to3/1 3/1to3/0 3/0to3/1 3/1to2/1 2/1to1/1 1/1to1/0 1/0to1/1 1/1to2/1 2/1to3/1 3/1to3/0 3/0to3/1 3/1to3/2 3/2to2/2 2/2to1/2 1/2to1/3 1/3to0/3 0/3to1/3 1/3to2/3 2/3to3/3 3/3to4/3 4/3to3/3 3/3to2/3 2/3to2/2 2/2to1/2 1/2to1/3 1/3to1/4 1/4to1/3 1/3to1/2 1/2to1/1 1/1to0/1 0/1to1/1 1/1to2/1 2/1to3/1 3/1to3/2 3/2to3/3 3/3to3/4 "/> 
</vehicle> 
<vehicle id="46" type="passenger" depart="2.00">
<route edges= "3/0to3/1 3/1to4/1 4/1to3/1 3/1to2/1 2/1to1/1 1/1to1/2 1/2to0/2 0/2to1/2 1/2to2/2 2/2to3/2 3/2to3/3 3/3to3/4 3/4to3/3 3/3to3/2 3/2to3/1 3/1to3/0 3/0to3/1 3/1to4/1 4/1to3/1 3/1to2/1 2/1to1/1 1/1to0/1 0/1to1/1 1/1to2/1 2/1to3/1 3/1to4/1 4/1to3/1 3/1to2/1 2/1to1/1 1/1to1/2 1/2to1/3 1/3to1/4 1/4to1/3 1/3to1/2 1/2to1/1 1/1to1/0 1/0to1/1 1/1to1/2 1/2to0/2 0/2to1/2 1/2to2/2 2/2to2/1 2/1to1/1 1/1to0/1 0/1to1/1 1/1to1/2 1/2to1/3 1/3to2/3 "/> 
</vehicle> 
<vehicle id="47" type="passenger" depart="2.00">
<route edges= "0/1to1/1 1/1to1/2 1/2to1/3 1/3to1/4 1/4to1/3 1/3to1/2 1/2to2/2 2/2to3/2 3/2to3/3 3/3to3/4 3/4to3/3 3/3to2/3 2/3to1/3 1/3to0/3 0/3to1/3 1/3to1/2 1/2to1/1 1/1to1/0 1/0to1/1 1/1to1/2 1/2to1/3 1/3to1/4 1/4to1/3 1/3to2/3 2/3to2/2 2/2to2/1 2/1to3/1 3/1to4/1 4/1to3/1 3/1to2/1 2/1to1/1 1/1to0/1 0/1to1/1 1/1to2/1 2/1to3/1 3/1to4/1 4/1to3/1 3/1to3/0 3/0to3/1 3/1to3/2 3/2to3/3 3/3to4/3 4/3to3/3 3/3to3/4 3/4to3/3 3/3to3/2 3/2to3/1 3/1to4/1 "/> 
</vehicle> 
<vehicle id="48" type="passenger" depart="2.00">
<route edges= "0/1to1/1 1/1to2/1 2/1to2/0 2/0to2/1 2/1to2/2 2/2to1/2 1/2to0/2 0/2to1/2 1/2to2/2 2/2to3/2 3/2to4/2 4/2to3/2 3/2to2/2 2/2to1/2 1/2to0/2 0/2to1/2 1/2to2/2 2/2to3/2 3/2to4/2 4/2to3/2 3/2to2/2 2/2to1/2 1/2to0/2 0/2to1/2 1/2to2/2 2/2to2/1 2/1to3/1 3/1to4/1 4/1to3/1 3/1to2/1 2/1to2/0 2/0to2/1 2/1to2/2 2/2to2/3 2/3to2/4 2/4to2/3 2/3to2/2 2/2to2/1 2/1to2/0 2/0to2/1 2/1to2/2 2/2to1/2 1/2to0/2 0/2to1/2 1/2to2/2 2/2to3/2 3/2to3/1 3/1to3/0 "/> 
</vehicle> 
<vehicle id="49" type="passenger" depart="2.00">
<route edges= "1/0to1/1 1/1to0/1 0/1to1/1 1/1to2/1 2/1to2/0 2/0to2/1 2/1to2/2 2/2to2/3 2/3to2/4 2/4to2/3 2/3to2/2 2/2to3/2 3/2to4/2 4/2to3/2 3/2to2/2 2/2to1/2 1/2to1/1 1/1to1/0 1/0to1/1 1/1to0/1 0/1to1/1 1/1to2/1 2/1to2/0 2/0to2/1 2/1to2/2 2/2to2/3 2/3to2/4 2/4to2/3 2/3to2/2 2/2to1/2 1/2to0/2 0/2to1/2 1/2to2/2 2/2to3/2 3/2to4/2 4/2to3/2 3/2to2/2 2/2to1/2 1/2to0/2 0/2to1/2 1/2to1/3 1/3to1/4 1/4to1/3 1/3to2/3 2/3to2/2 2/2to2/1 2/1to2/0 2/0to2/1 "/> 
</vehicle> 
<vehicle id="50" type="passenger" depart="2.00">
<route edges= "1/3to0/3 0/3to1/3 1/3to2/3 2/3to3/3 3/3to4/3 4/3to3/3 3/3to2/3 2/3to1/3 1/3to0/3 0/3to1/3 1/3to2/3 2/3to2/2 2/2to3/2 3/2to4/2 4/2to3/2 3/2to2/2 2/2to1/2 1/2to1/1 1/1to2/1 2/1to3/1 3/1to4/1 4/1to3/1 3/1to2/1 2/1to2/0 2/0to2/1 2/1to2/2 2/2to3/2 3/2to4/2 4/2to3/2 3/2to3/3 3/3to3/4 3/4to3/3 3/3to3/2 3/2to4/2 4/2to3/2 3/2to2/2 2/2to2/1 2/1to2/0 2/0to2/1 2/1to2/2 2/2to2/3 2/3to3/3 3/3to4/3 4/3to3/3 3/3to3/2 3/2to3/1 3/1to4/1 4/1to3/1 "/> 
</vehicle> 
<vehicle id="51" type="passenger" depart="2.00">
<route edges= "1/0to1/1 1/1to2/1 2/1to2/0 2/0to2/1 2/1to2/2 2/2to2/3 2/3to2/4 2/4to2/3 2/3to2/2 2/2to3/2 3/2to4/2 4/2to3/2 3/2to2/2 2/2to1/2 1/2to0/2 0/2to1/2 1/2to2/2 2/2to3/2 3/2to4/2 4/2to3/2 3/2to2/2 2/2to1/2 1/2to0/2 0/2to1/2 1/2to2/2 2/2to3/2 3/2to3/1 3/1to2/1 2/1to1/1 1/1to0/1 0/1to1/1 1/1to2/1 2/1to3/1 3/1to4/1 4/1to3/1 3/1to2/1 2/1to1/1 1/1to0/1 0/1to1/1 1/1to2/1 2/1to2/0 2/0to2/1 2/1to2/2 2/2to2/3 2/3to2/4 2/4to2/3 2/3to3/3 3/3to4/3 "/> 
</vehicle> 
<vehicle id="52" type="passenger" depart="2.00">
<route edges= "0/3to1/3 1/3to2/3 2/3to3/3 3/3to4/3 4/3to3/3 3/3to3/4 3/4to3/3 3/3to3/2 3/2to3/1 3/1to3/0 3/0to3/1 3/1to3/2 3/2to2/2 2/2to2/1 2/1to3/1 3/1to4/1 4/1to3/1 3/1to2/1 2/1to1/1 1/1to0/1 0/1to1/1 1/1to2/1 2/1to3/1 3/1to4/1 4/1to3/1 3/1to2/1 2/1to1/1 1/1to0/1 0/1to1/1 1/1to2/1 2/1to2/2 2/2to2/3 2/3to2/4 2/4to2/3 2/3to1/3 1/3to0/3 0/3to1/3 1/3to2/3 2/3to3/3 3/3to3/4 3/4to3/3 3/3to3/2 3/2to3/1 3/1to4/1 4/1to3/1 3/1to2/1 2/1to1/1 1/1to0/1 "/> 
</vehicle> 
<vehicle id="53" type="passenger" depart="2.00">
<route edges= "3/1to3/0 3/0to3/1 3/1to3/2 3/2to3/3 3/3to3/4 3/4to3/3 3/3to3/2 3/2to3/1 3/1to3/0 3/0to3/1 3/1to3/2 3/2to3/3 3/3to4/3 4/3to3/3 3/3to2/3 2/3to1/3 1/3to0/3 0/3to1/3 1/3to2/3 2/3to3/3 3/3to3/4 3/4to3/3 3/3to3/2 3/2to3/1 3/1to4/1 4/1to3/1 3/1to2/1 2/1to1/1 1/1to0/1 0/1to1/1 1/1to1/2 1/2to0/2 0/2to1/2 1/2to2/2 2/2to3/2 3/2to4/2 4/2to3/2 3/2to2/2 2/2to1/2 1/2to0/2 0/2to1/2 1/2to1/3 1/3to0/3 0/3to1/3 1/3to1/2 1/2to0/2 0/2to1/2 1/2to2/2 "/> 
</vehicle> 
<vehicle id="54" type="passenger" depart="2.00">
<route edges= "1/0to1/1 1/1to2/1 2/1to3/1 3/1to3/2 3/2to3/3 3/3to3/4 3/4to3/3 3/3to3/2 3/2to3/1 3/1to3/0 3/0to3/1 3/1to2/1 2/1to1/1 1/1to0/1 0/1to1/1 1/1to2/1 2/1to3/1 3/1to3/2 3/2to3/3 3/3to3/4 3/4to3/3 3/3to3/2 3/2to2/2 2/2to2/3 2/3to1/3 1/3to0/3 0/3to1/3 1/3to2/3 2/3to2/2 2/2to3/2 3/2to3/1 3/1to4/1 4/1to3/1 3/1to2/1 2/1to1/1 1/1to0/1 0/1to1/1 1/1to2/1 2/1to3/1 3/1to4/1 4/1to3/1 3/1to3/0 3/0to3/1 3/1to3/2 3/2to3/3 3/3to3/4 3/4to3/3 3/3to4/3 "/> 
</vehicle> 
<vehicle id="55" type="passenger" depart="2.00">
<route edges= "1/3to2/3 2/3to2/4 2/4to2/3 2/3to2/2 2/2to2/1 2/1to1/1 1/1to1/0 1/0to1/1 1/1to2/1 2/1to2/2 2/2to1/2 1/2to1/3 1/3to1/4 1/4to1/3 1/3to1/2 1/2to1/1 1/1to0/1 0/1to1/1 1/1to2/1 2/1to3/1 3/1to3/2 3/2to3/3 3/3to3/4 3/4to3/3 3/3to3/2 3/2to3/1 3/1to3/0 3/0to3/1 3/1to3/2 3/2to2/2 2/2to1/2 1/2to1/1 1/1to1/0 1/0to1/1 1/1to0/1 0/1to1/1 1/1to2/1 2/1to3/1 3/1to3/2 3/2to4/2 4/2to3/2 3/2to2/2 2/2to1/2 1/2to0/2 0/2to1/2 1/2to2/2 2/2to2/3 2/3to2/4 "/> 
</vehicle> 
<vehicle id="56" type="passenger" depart="2.00">
<route edges= "1/0to1/1 1/1to2/1 2/1to2/2 2/2to2/3 2/3to1/3 1/3to0/3 0/3to1/3 1/3to2/3 2/3to3/3 3/3to4/3 4/3to3/3 3/3to2/3 2/3to1/3 1/3to0/3 0/3to1/3 1/3to1/4 1/4to1/3 1/3to1/2 1/2to1/1 1/1to1/0 1/0to1/1 1/1to1/2 1/2to1/3 1/3to1/4 1/4to1/3 1/3to1/2 1/2to1/1 1/1to1/0 1/0to1/1 1/1to1/2 1/2to1/3 1/3to1/4 1/4to1/3 1/3to1/2 1/2to2/2 2/2to2/1 2/1to2/0 2/0to2/1 2/1to2/2 2/2to3/2 3/2to4/2 4/2to3/2 3/2to2/2 2/2to1/2 1/2to0/2 0/2to1/2 1/2to2/2 2/2to2/1 "/> 
</vehicle> 
<vehicle id="57" type="passenger" depart="2.00">
<route edges= "1/3to0/3 0/3to1/3 1/3to2/3 2/3to3/3 3/3to3/2 3/2to3/1 3/1to3/0 3/0to3/1 3/1to4/1 4/1to3/1 3/1to2/1 2/1to1/1 1/1to1/2 1/2to0/2 0/2to1/2 1/2to1/3 1/3to1/4 1/4to1/3 1/3to1/2 1/2to1/1 1/1to1/0 1/0to1/1 1/1to2/1 2/1to3/1 3/1to4/1 4/1to3/1 3/1to2/1 2/1to1/1 1/1to0/1 0/1to1/1 1/1to2/1 2/1to3/1 3/1to4/1 4/1to3/1 3/1to2/1 2/1to1/1 1/1to1/0 1/0to1/1 1/1to1/2 1/2to1/3 1/3to1/4 1/4to1/3 1/3to1/2 1/2to1/1 1/1to0/1 0/1to1/1 1/1to2/1 2/1to3/1 "/> 
</vehicle> 
<vehicle id="58" type="passenger" depart="2.00">
<route edges= "0/3to1/3 1/3to2/3 2/3to3/3 3/3to3/2 3/2to3/1 3/1to3/0 3/0to3/1 3/1to2/1 2/1to1/1 1/1to0/1 0/1to1/1 1/1to2/1 2/1to3/1 3/1to4/1 4/1to3/1 3/1to2/1 2/1to2/0 2/0to2/1 2/1to2/2 2/2to1/2 1/2to1/3 1/3to1/4 1/4to1/3 1/3to1/2 1/2to2/2 2/2to3/2 3/2to4/2 4/2to3/2 3/2to2/2 2/2to1/2 1/2to0/2 0/2to1/2 1/2to1/3 1/3to2/3 2/3to3/3 3/3to3/2 3/2to3/1 3/1to2/1 2/1to1/1 1/1to0/1 0/1to1/1 1/1to2/1 2/1to3/1 3/1to4/1 4/1to3/1 3/1to3/2 3/2to3/3 3/3to3/4 "/> 
</vehicle> 
<vehicle id="59" type="passenger" depart="2.00">