<?xml version="1.0" encoding="UTF-8"?>

<!-- generated on seg 15 jul 2019 07:30:08 -03 by Netedit Version 0.32.0
<?xml version="1.0" encoding="UTF-8"?>

<configuration xmlns:xsi="http://www.w3.org/2001/XMLSchema-instance" xsi:noNamespaceSchemaLocation="http://sumo.dlr.de/xsd/netconvertConfiguration.xsd">

    <input>
        <sumo-net-file value="/home/wagner/teor6x6x6.net.xml"/>
    </input>

    <output>
        <output-file value="/home/wagner/teor6x6x6.net.xml"/>
    </output>

    <processing>
        <no-turnarounds value="true"/>
        <offset.disable-normalization value="true"/>
        <lefthand value="false"/>
        <junctions.corner-detail value="0"/>
        <rectangular-lane-cut value="false"/>
        <walkingareas value="false"/>
    </processing>

</configuration>
-->

<net version="0.27" xmlns:xsi="http://www.w3.org/2001/XMLSchema-instance" xsi:noNamespaceSchemaLocation="http://sumo.dlr.de/xsd/net_file.xsd">

    <location netOffset="20.00,20.00" convBoundary="20.00,20.00,3020.00,3020.00" origBoundary="0.00,0.00,3000.00,3000.00" projParameter="!"/>

    <edge id=":0/0_0" function="internal">
        <lane id=":0/0_0_0" index="0" speed="13.90" length="18.55" shape="15.05,26.55 15.77,21.52 17.93,17.92 21.52,15.77 26.55,15.05"/>
    </edge>
    <edge id=":0/0_1" function="internal">
        <lane id=":0/0_1_0" index="0" speed="13.90" length="13.22" shape="18.35,26.55 18.86,22.96 20.40,20.40 22.96,18.86 26.55,18.35"/>
    </edge>
    <edge id=":0/0_2" function="internal">
        <lane id=":0/0_2_0" index="0" speed="13.90" length="2.69" shape="18.35,26.55 19.17,25.31 20.00,24.90 20.25,25.03"/>
    </edge>
    <edge id=":0/0_6" function="internal">
        <lane id=":0/0_6_0" index="0" speed="13.90" length="2.13" shape="20.25,25.03 20.82,25.31 21.65,26.55"/>
    </edge>
    <edge id=":0/0_3" function="internal">
        <lane id=":0/0_3_0" index="0" speed="13.90" length="2.58" shape="26.55,24.95 25.85,25.05 25.35,25.35 25.05,25.85 24.95,26.55"/>
    </edge>
    <edge id=":0/0_4" function="internal">
        <lane id=":0/0_4_0" index="0" speed="13.90" length="7.90" shape="26.55,21.65 24.41,21.96 22.87,22.87 21.96,24.41 21.65,26.55"/>
    </edge>
    <edge id=":0/0_5" function="internal">
        <lane id=":0/0_5_0" index="0" speed="13.90" length="2.20" shape="26.55,21.65 25.31,20.83 24.99,20.19"/>
    </edge>
    <edge id=":0/0_7" function="internal">
        <lane id=":0/0_7_0" index="0" speed="13.90" length="2.62" shape="24.99,20.19 24.90,20.00 25.31,19.18 26.55,18.35"/>
    </edge>
    <edge id=":0/1_0" function="internal">
        <lane id=":0/1_0_0" index="0" speed="13.90" length="16.10" shape="15.05,628.05 15.05,611.95"/>
        <lane id=":0/1_0_1" index="1" speed="13.90" length="16.10" shape="18.35,628.05 18.35,611.95"/>
    </edge>
    <edge id=":0/1_2" function="internal">
        <lane id=":0/1_2_0" index="0" speed="13.90" length="6.41" shape="18.35,628.05 18.96,623.81 20.05,621.98"/>
    </edge>
    <edge id=":0/1_3" function="internal">
        <lane id=":0/1_3_0" index="0" speed="13.90" length="2.41" shape="18.35,628.05 19.17,626.81 20.00,626.40"/>
    </edge>
    <edge id=":0/1_11" function="internal">
        <lane id=":0/1_11_0" index="0" speed="13.90" length="9.23" shape="20.05,621.98 20.77,620.77 23.81,618.96 28.05,618.35"/>
    </edge>
    <edge id=":0/1_12" function="internal">
        <lane id=":0/1_12_0" index="0" speed="13.90" length="2.41" shape="20.00,626.40 20.82,626.81 21.65,628.05"/>
    </edge>
    <edge id=":0/1_4" function="internal">
        <lane id=":0/1_4_0" index="0" speed="13.90" length="5.00" shape="28.05,624.95 26.69,625.14 25.73,625.73 25.14,626.69 24.95,628.05"/>
    </edge>
    <edge id=":0/1_5" function="internal">
        <lane id=":0/1_5_0" index="0" speed="13.90" length="15.64" shape="28.05,621.65 23.81,621.04 20.77,619.22 18.96,616.19 18.35,611.95"/>
    </edge>
    <edge id=":0/1_6" function="internal">
        <lane id=":0/1_6_0" index="0" speed="13.90" length="4.82" shape="28.05,621.65 26.81,620.82 26.40,620.00 26.81,619.17 28.05,618.35"/>
    </edge>
    <edge id=":0/1_7" function="internal">
        <lane id=":0/1_7_0" index="0" speed="13.90" length="5.00" shape="24.95,611.95 25.14,613.31 25.72,614.27 26.69,614.86 28.05,615.05"/>
    </edge>
    <edge id=":0/1_8" function="internal">
        <lane id=":0/1_8_0" index="0" speed="13.90" length="16.10" shape="24.95,611.95 24.95,628.05"/>
        <lane id=":0/1_8_1" index="1" speed="13.90" length="16.10" shape="21.65,611.95 21.65,628.05"/>
    </edge>
    <edge id=":0/1_10" function="internal">
        <lane id=":0/1_10_0" index="0" speed="13.90" length="2.41" shape="21.65,611.95 20.83,613.19 20.00,613.60"/>
    </edge>
    <edge id=":0/1_13" function="internal">
        <lane id=":0/1_13_0" index="0" speed="13.90" length="2.41" shape="20.00,613.60 19.18,613.19 18.35,611.95"/>
    </edge>
    <edge id=":0/2_0" function="internal">
        <lane id=":0/2_0_0" index="0" speed="13.90" length="16.10" shape="15.05,1228.05 15.05,1211.95"/>
        <lane id=":0/2_0_1" index="1" speed="13.90" length="16.10" shape="18.35,1228.05 18.35,1211.95"/>
    </edge>
    <edge id=":0/2_2" function="internal">
        <lane id=":0/2_2_0" index="0" speed="13.90" length="6.41" shape="18.35,1228.05 18.96,1223.81 20.05,1221.98"/>
    </edge>
    <edge id=":0/2_3" function="internal">
        <lane id=":0/2_3_0" index="0" speed="13.90" length="2.41" shape="18.35,1228.05 19.17,1226.81 20.00,1226.40"/>
    </edge>
    <edge id=":0/2_11" function="internal">
        <lane id=":0/2_11_0" index="0" speed="13.90" length="9.23" shape="20.05,1221.98 20.77,1220.78 23.81,1218.96 28.05,1218.35"/>
    </edge>
    <edge id=":0/2_12" function="internal">
        <lane id=":0/2_12_0" index="0" speed="13.90" length="2.41" shape="20.00,1226.40 20.82,1226.81 21.65,1228.05"/>
    </edge>
    <edge id=":0/2_4" function="internal">
        <lane id=":0/2_4_0" index="0" speed="13.90" length="5.00" shape="28.05,1224.95 26.69,1225.14 25.73,1225.73 25.14,1226.69 24.95,1228.05"/>
    </edge>
    <edge id=":0/2_5" function="internal">
        <lane id=":0/2_5_0" index="0" speed="13.90" length="15.64" shape="28.05,1221.65 23.81,1221.04 20.78,1219.23 18.96,1216.19 18.35,1211.95"/>
    </edge>
    <edge id=":0/2_6" function="internal">
        <lane id=":0/2_6_0" index="0" speed="13.90" length="4.82" shape="28.05,1221.65 26.81,1220.82 26.40,1220.00 26.81,1219.17 28.05,1218.35"/>
    </edge>
    <edge id=":0/2_7" function="internal">
        <lane id=":0/2_7_0" index="0" speed="13.90" length="5.00" shape="24.95,1211.95 25.14,1213.31 25.72,1214.28 26.69,1214.86 28.05,1215.05"/>
    </edge>
    <edge id=":0/2_8" function="internal">
        <lane id=":0/2_8_0" index="0" speed="13.90" length="16.10" shape="24.95,1211.95 24.95,1228.05"/>
        <lane id=":0/2_8_1" index="1" speed="13.90" length="16.10" shape="21.65,1211.95 21.65,1228.05"/>
    </edge>
    <edge id=":0/2_10" function="internal">
        <lane id=":0/2_10_0" index="0" speed="13.90" length="2.41" shape="21.65,1211.95 20.83,1213.19 20.00,1213.60"/>
    </edge>
    <edge id=":0/2_13" function="internal">
        <lane id=":0/2_13_0" index="0" speed="13.90" length="2.41" shape="20.00,1213.60 19.18,1213.19 18.35,1211.95"/>
    </edge>
    <edge id=":0/3_0" function="internal">
        <lane id=":0/3_0_0" index="0" speed="13.90" length="16.10" shape="15.05,1828.05 15.05,1811.95"/>
        <lane id=":0/3_0_1" index="1" speed="13.90" length="16.10" shape="18.35,1828.05 18.35,1811.95"/>
    </edge>
    <edge id=":0/3_2" function="internal">
        <lane id=":0/3_2_0" index="0" speed="13.90" length="6.41" shape="18.35,1828.05 18.96,1823.81 20.05,1821.98"/>
    </edge>
    <edge id=":0/3_3" function="internal">
        <lane id=":0/3_3_0" index="0" speed="13.90" length="2.41" shape="18.35,1828.05 19.17,1826.81 20.00,1826.40"/>
    </edge>
    <edge id=":0/3_11" function="internal">
        <lane id=":0/3_11_0" index="0" speed="13.90" length="9.23" shape="20.05,1821.98 20.78,1820.78 23.81,1818.96 28.05,1818.35"/>
    </edge>
    <edge id=":0/3_12" function="internal">
        <lane id=":0/3_12_0" index="0" speed="13.90" length="2.41" shape="20.00,1826.40 20.82,1826.81 21.65,1828.05"/>
    </edge>
    <edge id=":0/3_4" function="internal">
        <lane id=":0/3_4_0" index="0" speed="13.90" length="5.00" shape="28.05,1824.95 26.69,1825.14 25.73,1825.73 25.14,1826.69 24.95,1828.05"/>
    </edge>
    <edge id=":0/3_5" function="internal">
        <lane id=":0/3_5_0" index="0" speed="13.90" length="15.64" shape="28.05,1821.65 23.81,1821.04 20.77,1819.23 18.96,1816.19 18.35,1811.95"/>
    </edge>
    <edge id=":0/3_6" function="internal">
        <lane id=":0/3_6_0" index="0" speed="13.90" length="4.82" shape="28.05,1821.65 26.81,1820.83 26.40,1820.00 26.81,1819.17 28.05,1818.35"/>
    </edge>
    <edge id=":0/3_7" function="internal">
        <lane id=":0/3_7_0" index="0" speed="13.90" length="5.00" shape="24.95,1811.95 25.14,1813.31 25.73,1814.28 26.69,1814.86 28.05,1815.05"/>
    </edge>
    <edge id=":0/3_8" function="internal">
        <lane id=":0/3_8_0" index="0" speed="13.90" length="16.10" shape="24.95,1811.95 24.95,1828.05"/>
        <lane id=":0/3_8_1" index="1" speed="13.90" length="16.10" shape="21.65,1811.95 21.65,1828.05"/>
    </edge>
    <edge id=":0/3_10" function="internal">
        <lane id=":0/3_10_0" index="0" speed="13.90" length="2.41" shape="21.65,1811.95 20.83,1813.19 20.00,1813.60"/>
    </edge>
    <edge id=":0/3_13" function="internal">
        <lane id=":0/3_13_0" index="0" speed="13.90" length="2.41" shape="20.00,1813.60 19.18,1813.19 18.35,1811.95"/>
    </edge>
    <edge id=":0/4_0" function="internal">
        <lane id=":0/4_0_0" index="0" speed="13.90" length="16.10" shape="15.05,2428.05 15.05,2411.95"/>
        <lane id=":0/4_0_1" index="1" speed="13.90" length="16.10" shape="18.35,2428.05 18.35,2411.95"/>
    </edge>
    <edge id=":0/4_2" function="internal">
        <lane id=":0/4_2_0" index="0" speed="13.90" length="6.41" shape="18.35,2428.05 18.96,2423.81 20.05,2421.98"/>
    </edge>
    <edge id=":0/4_3" function="internal">
        <lane id=":0/4_3_0" index="0" speed="13.90" length="2.41" shape="18.35,2428.05 19.17,2426.81 20.00,2426.40"/>
    </edge>
    <edge id=":0/4_11" function="internal">
        <lane id=":0/4_11_0" index="0" speed="13.90" length="9.23" shape="20.05,2421.98 20.77,2420.78 23.81,2418.96 28.05,2418.35"/>
    </edge>
    <edge id=":0/4_12" function="internal">
        <lane id=":0/4_12_0" index="0" speed="13.90" length="2.41" shape="20.00,2426.40 20.82,2426.81 21.65,2428.05"/>
    </edge>
    <edge id=":0/4_4" function="internal">
        <lane id=":0/4_4_0" index="0" speed="13.90" length="5.00" shape="28.05,2424.95 26.69,2425.14 25.73,2425.72 25.14,2426.69 24.95,2428.05"/>
    </edge>
    <edge id=":0/4_5" function="internal">
        <lane id=":0/4_5_0" index="0" speed="13.90" length="15.64" shape="28.05,2421.65 23.81,2421.04 20.77,2419.23 18.96,2416.19 18.35,2411.95"/>
    </edge>
    <edge id=":0/4_6" function="internal">
        <lane id=":0/4_6_0" index="0" speed="13.90" length="4.82" shape="28.05,2421.65 26.81,2420.83 26.40,2420.00 26.81,2419.18 28.05,2418.35"/>
    </edge>
    <edge id=":0/4_7" function="internal">
        <lane id=":0/4_7_0" index="0" speed="13.90" length="5.00" shape="24.95,2411.95 25.14,2413.31 25.72,2414.28 26.69,2414.86 28.05,2415.05"/>
    </edge>
    <edge id=":0/4_8" function="internal">
        <lane id=":0/4_8_0" index="0" speed="13.90" length="16.10" shape="24.95,2411.95 24.95,2428.05"/>
        <lane id=":0/4_8_1" index="1" speed="13.90" length="16.10" shape="21.65,2411.95 21.65,2428.05"/>
    </edge>
    <edge id=":0/4_10" function="internal">
        <lane id=":0/4_10_0" index="0" speed="13.90" length="2.41" shape="21.65,2411.95 20.83,2413.19 20.00,2413.60"/>
    </edge>
    <edge id=":0/4_13" function="internal">
        <lane id=":0/4_13_0" index="0" speed="13.90" length="2.41" shape="20.00,2413.60 19.18,2413.19 18.35,2411.95"/>
    </edge>
    <edge id=":0/5_0" function="internal">
        <lane id=":0/5_0_0" index="0" speed="13.90" length="18.55" shape="26.55,3024.95 21.52,3024.23 17.92,3022.07 15.77,3018.48 15.05,3013.45"/>
    </edge>
    <edge id=":0/5_1" function="internal">
        <lane id=":0/5_1_0" index="0" speed="13.90" length="13.22" shape="26.55,3021.65 22.96,3021.14 20.40,3019.60 18.86,3017.04 18.35,3013.45"/>
    </edge>
    <edge id=":0/5_2" function="internal">
        <lane id=":0/5_2_0" index="0" speed="13.90" length="2.69" shape="26.55,3021.65 25.31,3020.83 24.90,3020.00 25.03,3019.75"/>
    </edge>
    <edge id=":0/5_6" function="internal">
        <lane id=":0/5_6_0" index="0" speed="13.90" length="2.13" shape="25.03,3019.75 25.31,3019.18 26.55,3018.35"/>
    </edge>
    <edge id=":0/5_3" function="internal">
        <lane id=":0/5_3_0" index="0" speed="13.90" length="2.58" shape="24.95,3013.45 25.05,3014.15 25.35,3014.65 25.85,3014.95 26.55,3015.05"/>
    </edge>
    <edge id=":0/5_4" function="internal">
        <lane id=":0/5_4_0" index="0" speed="13.90" length="7.90" shape="21.65,3013.45 21.96,3015.59 22.87,3017.12 24.41,3018.04 26.55,3018.35"/>
    </edge>
    <edge id=":0/5_5" function="internal">
        <lane id=":0/5_5_0" index="0" speed="13.90" length="2.20" shape="21.65,3013.45 20.83,3014.69 20.19,3015.01"/>
    </edge>
    <edge id=":0/5_7" function="internal">
        <lane id=":0/5_7_0" index="0" speed="13.90" length="2.62" shape="20.19,3015.01 20.00,3015.10 19.18,3014.69 18.35,3013.45"/>
    </edge>
    <edge id=":1/0_0" function="internal">
        <lane id=":1/0_0_0" index="0" speed="13.90" length="5.00" shape="615.05,28.05 614.86,26.69 614.27,25.72 613.31,25.14 611.95,24.95"/>
    </edge>
    <edge id=":1/0_1" function="internal">
        <lane id=":1/0_1_0" index="0" speed="13.90" length="15.64" shape="618.35,28.05 618.96,23.81 620.78,20.78 623.81,18.96 628.05,18.35"/>
    </edge>
    <edge id=":1/0_2" function="internal">
        <lane id=":1/0_2_0" index="0" speed="13.90" length="4.82" shape="618.35,28.05 619.18,26.81 620.00,26.40 620.83,26.81 621.65,28.05"/>
    </edge>
    <edge id=":1/0_3" function="internal">
        <lane id=":1/0_3_0" index="0" speed="13.90" length="5.00" shape="628.05,24.95 626.69,25.14 625.73,25.72 625.14,26.69 624.95,28.05"/>
    </edge>
    <edge id=":1/0_4" function="internal">
        <lane id=":1/0_4_0" index="0" speed="13.90" length="16.10" shape="628.05,24.95 611.95,24.95"/>
        <lane id=":1/0_4_1" index="1" speed="13.90" length="16.10" shape="628.05,21.65 611.95,21.65"/>
    </edge>
    <edge id=":1/0_6" function="internal">
        <lane id=":1/0_6_0" index="0" speed="13.90" length="2.41" shape="628.05,21.65 626.81,20.83 626.40,20.00"/>
    </edge>
    <edge id=":1/0_11" function="internal">
        <lane id=":1/0_11_0" index="0" speed="13.90" length="2.41" shape="626.40,20.00 626.81,19.18 628.05,18.35"/>
    </edge>
    <edge id=":1/0_7" function="internal">
        <lane id=":1/0_7_0" index="0" speed="13.90" length="16.10" shape="611.95,15.05 628.05,15.05"/>
        <lane id=":1/0_7_1" index="1" speed="13.90" length="16.10" shape="611.95,18.35 628.05,18.35"/>
    </edge>
    <edge id=":1/0_9" function="internal">
        <lane id=":1/0_9_0" index="0" speed="13.90" length="6.41" shape="611.95,18.35 616.19,18.96 618.02,20.05"/>
    </edge>
    <edge id=":1/0_10" function="internal">
        <lane id=":1/0_10_0" index="0" speed="13.90" length="2.41" shape="611.95,18.35 613.19,19.17 613.60,20.00"/>
    </edge>
    <edge id=":1/0_12" function="internal">
        <lane id=":1/0_12_0" index="0" speed="13.90" length="9.23" shape="618.02,20.05 619.23,20.77 621.04,23.81 621.65,28.05"/>
    </edge>
    <edge id=":1/0_13" function="internal">
        <lane id=":1/0_13_0" index="0" speed="13.90" length="2.41" shape="613.60,20.00 613.19,20.82 611.95,21.65"/>
    </edge>
    <edge id=":1/1_0" function="internal">
        <lane id=":1/1_0_0" index="0" speed="13.90" length="5.00" shape="615.05,628.05 614.86,626.69 614.27,625.73 613.31,625.14 611.95,624.95"/>
    </edge>
    <edge id=":1/1_1" function="internal">
        <lane id=":1/1_1_0" index="0" speed="13.90" length="16.10" shape="615.05,628.05 615.05,611.95"/>
        <lane id=":1/1_1_1" index="1" speed="13.90" length="16.10" shape="618.35,628.05 618.35,611.95"/>
    </edge>
    <edge id=":1/1_3" function="internal">
        <lane id=":1/1_3_0" index="0" speed="13.90" length="6.41" shape="618.35,628.05 618.96,623.81 620.05,621.98"/>
    </edge>
    <edge id=":1/1_4" function="internal">
        <lane id=":1/1_4_0" index="0" speed="13.90" length="2.41" shape="618.35,628.05 619.18,626.81 620.00,626.40"/>
    </edge>
    <edge id=":1/1_20" function="internal">
        <lane id=":1/1_20_0" index="0" speed="13.90" length="9.23" shape="620.05,621.98 620.78,620.77 623.81,618.96 628.05,618.35"/>
    </edge>
    <edge id=":1/1_21" function="internal">
        <lane id=":1/1_21_0" index="0" speed="13.90" length="2.41" shape="620.00,626.40 620.83,626.81 621.65,628.05"/>
    </edge>
    <edge id=":1/1_5" function="internal">
        <lane id=":1/1_5_0" index="0" speed="13.90" length="5.00" shape="628.05,624.95 626.69,625.14 625.73,625.73 625.14,626.69 624.95,628.05"/>
    </edge>
    <edge id=":1/1_6" function="internal">
        <lane id=":1/1_6_0" index="0" speed="13.90" length="16.10" shape="628.05,624.95 611.95,624.95"/>
        <lane id=":1/1_6_1" index="1" speed="13.90" length="16.10" shape="628.05,621.65 611.95,621.65"/>
    </edge>
    <edge id=":1/1_8" function="internal">
        <lane id=":1/1_8_0" index="0" speed="13.90" length="15.64" shape="628.05,621.65 623.81,621.04 620.77,619.22 618.96,616.19 618.35,611.95"/>
    </edge>
    <edge id=":1/1_9" function="internal">
        <lane id=":1/1_9_0" index="0" speed="13.90" length="4.82" shape="628.05,621.65 626.81,620.82 626.40,620.00 626.81,619.17 628.05,618.35"/>
    </edge>
    <edge id=":1/1_10" function="internal">
        <lane id=":1/1_10_0" index="0" speed="13.90" length="5.00" shape="624.95,611.95 625.14,613.31 625.73,614.27 626.69,614.86 628.05,615.05"/>
    </edge>
    <edge id=":1/1_11" function="internal">
        <lane id=":1/1_11_0" index="0" speed="13.90" length="16.10" shape="624.95,611.95 624.95,628.05"/>
        <lane id=":1/1_11_1" index="1" speed="13.90" length="16.10" shape="621.65,611.95 621.65,628.05"/>
    </edge>
    <edge id=":1/1_13" function="internal">
        <lane id=":1/1_13_0" index="0" speed="13.90" length="6.41" shape="621.65,611.95 621.04,616.19 619.95,618.02"/>
    </edge>
    <edge id=":1/1_14" function="internal">
        <lane id=":1/1_14_0" index="0" speed="13.90" length="2.41" shape="621.65,611.95 620.82,613.19 620.00,613.60"/>
    </edge>
    <edge id=":1/1_22" function="internal">
        <lane id=":1/1_22_0" index="0" speed="13.90" length="9.23" shape="619.95,618.02 619.22,619.23 616.19,621.04 611.95,621.65"/>
    </edge>
    <edge id=":1/1_23" function="internal">
        <lane id=":1/1_23_0" index="0" speed="13.90" length="2.41" shape="620.00,613.60 619.17,613.19 618.35,611.95"/>
    </edge>
    <edge id=":1/1_15" function="internal">
        <lane id=":1/1_15_0" index="0" speed="13.90" length="5.00" shape="611.95,615.05 613.31,614.86 614.27,614.27 614.86,613.31 615.05,611.95"/>
    </edge>
    <edge id=":1/1_16" function="internal">
        <lane id=":1/1_16_0" index="0" speed="13.90" length="16.10" shape="611.95,615.05 628.05,615.05"/>
        <lane id=":1/1_16_1" index="1" speed="13.90" length="16.10" shape="611.95,618.35 628.05,618.35"/>
    </edge>
    <edge id=":1/1_18" function="internal">
        <lane id=":1/1_18_0" index="0" speed="13.90" length="15.64" shape="611.95,618.35 616.19,618.96 619.23,620.78 621.04,623.81 621.65,628.05"/>
    </edge>
    <edge id=":1/1_19" function="internal">
        <lane id=":1/1_19_0" index="0" speed="13.90" length="4.82" shape="611.95,618.35 613.19,619.18 613.60,620.00 613.19,620.83 611.95,621.65"/>
    </edge>
    <edge id=":1/2_0" function="internal">
        <lane id=":1/2_0_0" index="0" speed="13.90" length="5.00" shape="615.05,1228.05 614.86,1226.69 614.27,1225.72 613.31,1225.14 611.95,1224.95"/>
    </edge>
    <edge id=":1/2_1" function="internal">
        <lane id=":1/2_1_0" index="0" speed="13.90" length="16.10" shape="615.05,1228.05 615.05,1211.95"/>
        <lane id=":1/2_1_1" index="1" speed="13.90" length="16.10" shape="618.35,1228.05 618.35,1211.95"/>
    </edge>
    <edge id=":1/2_3" function="internal">
        <lane id=":1/2_3_0" index="0" speed="13.90" length="6.41" shape="618.35,1228.05 618.96,1223.81 620.05,1221.98"/>
    </edge>
    <edge id=":1/2_4" function="internal">
        <lane id=":1/2_4_0" index="0" speed="13.90" length="2.41" shape="618.35,1228.05 619.18,1226.81 620.00,1226.40"/>
    </edge>
    <edge id=":1/2_20" function="internal">
        <lane id=":1/2_20_0" index="0" speed="13.90" length="9.23" shape="620.05,1221.98 620.78,1220.78 623.81,1218.96 628.05,1218.35"/>
    </edge>
    <edge id=":1/2_21" function="internal">
        <lane id=":1/2_21_0" index="0" speed="13.90" length="2.41" shape="620.00,1226.40 620.83,1226.81 621.65,1228.05"/>
    </edge>
    <edge id=":1/2_5" function="internal">
        <lane id=":1/2_5_0" index="0" speed="13.90" length="5.00" shape="628.05,1224.95 626.69,1225.14 625.73,1225.73 625.14,1226.69 624.95,1228.05"/>
    </edge>
    <edge id=":1/2_6" function="internal">
        <lane id=":1/2_6_0" index="0" speed="13.90" length="16.10" shape="628.05,1224.95 611.95,1224.95"/>
        <lane id=":1/2_6_1" index="1" speed="13.90" length="16.10" shape="628.05,1221.65 611.95,1221.65"/>
    </edge>
    <edge id=":1/2_8" function="internal">
        <lane id=":1/2_8_0" index="0" speed="13.90" length="15.64" shape="628.05,1221.65 623.81,1221.04 620.77,1219.23 618.96,1216.19 618.35,1211.95"/>
    </edge>
    <edge id=":1/2_9" function="internal">
        <lane id=":1/2_9_0" index="0" speed="13.90" length="4.82" shape="628.05,1221.65 626.81,1220.82 626.40,1220.00 626.81,1219.17 628.05,1218.35"/>
    </edge>
    <edge id=":1/2_10" function="internal">
        <lane id=":1/2_10_0" index="0" speed="13.90" length="5.00" shape="624.95,1211.95 625.14,1213.31 625.73,1214.28 626.69,1214.86 628.05,1215.05"/>
    </edge>
    <edge id=":1/2_11" function="internal">
        <lane id=":1/2_11_0" index="0" speed="13.90" length="16.10" shape="624.95,1211.95 624.95,1228.05"/>
        <lane id=":1/2_11_1" index="1" speed="13.90" length="16.10" shape="621.65,1211.95 621.65,1228.05"/>
    </edge>
    <edge id=":1/2_13" function="internal">
        <lane id=":1/2_13_0" index="0" speed="13.90" length="6.41" shape="621.65,1211.95 621.04,1216.19 619.95,1218.02"/>
    </edge>
    <edge id=":1/2_14" function="internal">
        <lane id=":1/2_14_0" index="0" speed="13.90" length="2.41" shape="621.65,1211.95 620.82,1213.19 620.00,1213.60"/>
    </edge>
    <edge id=":1/2_22" function="internal">
        <lane id=":1/2_22_0" index="0" speed="13.90" length="9.23" shape="619.95,1218.02 619.22,1219.22 616.19,1221.04 611.95,1221.65"/>
    </edge>
    <edge id=":1/2_23" function="internal">
        <lane id=":1/2_23_0" index="0" speed="13.90" length="2.41" shape="620.00,1213.60 619.17,1213.19 618.35,1211.95"/>
    </edge>
    <edge id=":1/2_15" function="internal">
        <lane id=":1/2_15_0" index="0" speed="13.90" length="5.00" shape="611.95,1215.05 613.31,1214.86 614.27,1214.27 614.86,1213.31 615.05,1211.95"/>
    </edge>
    <edge id=":1/2_16" function="internal">
        <lane id=":1/2_16_0" index="0" speed="13.90" length="16.10" shape="611.95,1215.05 628.05,1215.05"/>
        <lane id=":1/2_16_1" index="1" speed="13.90" length="16.10" shape="611.95,1218.35 628.05,1218.35"/>
    </edge>
    <edge id=":1/2_18" function="internal">
        <lane id=":1/2_18_0" index="0" speed="13.90" length="15.64" shape="611.95,1218.35 616.19,1218.96 619.23,1220.77 621.04,1223.81 621.65,1228.05"/>
    </edge>
    <edge id=":1/2_19" function="internal">
        <lane id=":1/2_19_0" index="0" speed="13.90" length="4.82" shape="611.95,1218.35 613.19,1219.18 613.60,1220.00 613.19,1220.83 611.95,1221.65"/>
    </edge>
    <edge id=":1/3_0" function="internal">
        <lane id=":1/3_0_0" index="0" speed="13.90" length="5.00" shape="615.05,1828.05 614.86,1826.69 614.27,1825.72 613.31,1825.14 611.95,1824.95"/>
    </edge>
    <edge id=":1/3_1" function="internal">
        <lane id=":1/3_1_0" index="0" speed="13.90" length="16.10" shape="615.05,1828.05 615.05,1811.95"/>
        <lane id=":1/3_1_1" index="1" speed="13.90" length="16.10" shape="618.35,1828.05 618.35,1811.95"/>
    </edge>
    <edge id=":1/3_3" function="internal">
        <lane id=":1/3_3_0" index="0" speed="13.90" length="6.41" shape="618.35,1828.05 618.96,1823.81 620.05,1821.98"/>
    </edge>
    <edge id=":1/3_4" function="internal">
        <lane id=":1/3_4_0" index="0" speed="13.90" length="2.41" shape="618.35,1828.05 619.18,1826.81 620.00,1826.40"/>
    </edge>
    <edge id=":1/3_20" function="internal">
        <lane id=":1/3_20_0" index="0" speed="13.90" length="9.23" shape="620.05,1821.98 620.78,1820.78 623.81,1818.96 628.05,1818.35"/>
    </edge>
    <edge id=":1/3_21" function="internal">
        <lane id=":1/3_21_0" index="0" speed="13.90" length="2.41" shape="620.00,1826.40 620.83,1826.81 621.65,1828.05"/>
    </edge>
    <edge id=":1/3_5" function="internal">
        <lane id=":1/3_5_0" index="0" speed="13.90" length="5.00" shape="628.05,1824.95 626.69,1825.14 625.73,1825.73 625.14,1826.69 624.95,1828.05"/>
    </edge>
    <edge id=":1/3_6" function="internal">
        <lane id=":1/3_6_0" index="0" speed="13.90" length="16.10" shape="628.05,1824.95 611.95,1824.95"/>
        <lane id=":1/3_6_1" index="1" speed="13.90" length="16.10" shape="628.05,1821.65 611.95,1821.65"/>
    </edge>
    <edge id=":1/3_8" function="internal">
        <lane id=":1/3_8_0" index="0" speed="13.90" length="15.64" shape="628.05,1821.65 623.81,1821.04 620.77,1819.23 618.96,1816.19 618.35,1811.95"/>
    </edge>
    <edge id=":1/3_9" function="internal">
        <lane id=":1/3_9_0" index="0" speed="13.90" length="4.82" shape="628.05,1821.65 626.81,1820.83 626.40,1820.00 626.81,1819.17 628.05,1818.35"/>
    </edge>
    <edge id=":1/3_10" function="internal">
        <lane id=":1/3_10_0" index="0" speed="13.90" length="5.00" shape="624.95,1811.95 625.14,1813.31 625.73,1814.28 626.69,1814.86 628.05,1815.05"/>
    </edge>
    <edge id=":1/3_11" function="internal">
        <lane id=":1/3_11_0" index="0" speed="13.90" length="16.10" shape="624.95,1811.95 624.95,1828.05"/>
        <lane id=":1/3_11_1" index="1" speed="13.90" length="16.10" shape="621.65,1811.95 621.65,1828.05"/>
    </edge>
    <edge id=":1/3_13" function="internal">
        <lane id=":1/3_13_0" index="0" speed="13.90" length="6.41" shape="621.65,1811.95 621.04,1816.19 619.95,1818.02"/>
    </edge>
    <edge id=":1/3_14" function="internal">
        <lane id=":1/3_14_0" index="0" speed="13.90" length="2.41" shape="621.65,1811.95 620.82,1813.19 620.00,1813.60"/>
    </edge>
    <edge id=":1/3_22" function="internal">
        <lane id=":1/3_22_0" index="0" speed="13.90" length="9.23" shape="619.95,1818.02 619.22,1819.22 616.19,1821.04 611.95,1821.65"/>
    </edge>
    <edge id=":1/3_23" function="internal">
        <lane id=":1/3_23_0" index="0" speed="13.90" length="2.41" shape="620.00,1813.60 619.17,1813.19 618.35,1811.95"/>
    </edge>
    <edge id=":1/3_15" function="internal">
        <lane id=":1/3_15_0" index="0" speed="13.90" length="5.00" shape="611.95,1815.05 613.31,1814.86 614.27,1814.27 614.86,1813.31 615.05,1811.95"/>
    </edge>
    <edge id=":1/3_16" function="internal">
        <lane id=":1/3_16_0" index="0" speed="13.90" length="16.10" shape="611.95,1815.05 628.05,1815.05"/>
        <lane id=":1/3_16_1" index="1" speed="13.90" length="16.10" shape="611.95,1818.35 628.05,1818.35"/>
    </edge>
    <edge id=":1/3_18" function="internal">
        <lane id=":1/3_18_0" index="0" speed="13.90" length="15.64" shape="611.95,1818.35 616.19,1818.96 619.23,1820.77 621.04,1823.81 621.65,1828.05"/>
    </edge>
    <edge id=":1/3_19" function="internal">
        <lane id=":1/3_19_0" index="0" speed="13.90" length="4.82" shape="611.95,1818.35 613.19,1819.18 613.60,1820.00 613.19,1820.83 611.95,1821.65"/>
    </edge>
    <edge id=":1/4_0" function="internal">
        <lane id=":1/4_0_0" index="0" speed="13.90" length="5.00" shape="615.05,2428.05 614.86,2426.69 614.27,2425.72 613.31,2425.14 611.95,2424.95"/>
    </edge>
    <edge id=":1/4_1" function="internal">
        <lane id=":1/4_1_0" index="0" speed="13.90" length="16.10" shape="615.05,2428.05 615.05,2411.95"/>
        <lane id=":1/4_1_1" index="1" speed="13.90" length="16.10" shape="618.35,2428.05 618.35,2411.95"/>
    </edge>
    <edge id=":1/4_3" function="internal">
        <lane id=":1/4_3_0" index="0" speed="13.90" length="6.41" shape="618.35,2428.05 618.96,2423.81 620.05,2421.98"/>
    </edge>
    <edge id=":1/4_4" function="internal">
        <lane id=":1/4_4_0" index="0" speed="13.90" length="2.41" shape="618.35,2428.05 619.18,2426.81 620.00,2426.40"/>
    </edge>
    <edge id=":1/4_20" function="internal">
        <lane id=":1/4_20_0" index="0" speed="13.90" length="9.23" shape="620.05,2421.98 620.78,2420.78 623.81,2418.96 628.05,2418.35"/>
    </edge>
    <edge id=":1/4_21" function="internal">
        <lane id=":1/4_21_0" index="0" speed="13.90" length="2.41" shape="620.00,2426.40 620.83,2426.81 621.65,2428.05"/>
    </edge>
    <edge id=":1/4_5" function="internal">
        <lane id=":1/4_5_0" index="0" speed="13.90" length="5.00" shape="628.05,2424.95 626.69,2425.14 625.73,2425.72 625.14,2426.69 624.95,2428.05"/>
    </edge>
    <edge id=":1/4_6" function="internal">
        <lane id=":1/4_6_0" index="0" speed="13.90" length="16.10" shape="628.05,2424.95 611.95,2424.95"/>