<?xml version="1.0" encoding="UTF-8"?>

<!-- generated on seg 15 jul 2019 07:28:41 -03 by Netedit Version 0.32.0
<?xml version="1.0" encoding="UTF-8"?>

<configuration xmlns:xsi="http://www.w3.org/2001/XMLSchema-instance" xsi:noNamespaceSchemaLocation="http://sumo.dlr.de/xsd/netconvertConfiguration.xsd">

    <input>
        <sumo-net-file value="/home/wagner/teor6x6x4.net.xml"/>
    </input>

    <output>
        <output-file value="/home/wagner/teor6x6x4.net.xml"/>
    </output>

    <processing>
        <no-turnarounds value="true"/>
        <offset.disable-normalization value="true"/>
        <lefthand value="false"/>
        <junctions.corner-detail value="0"/>
        <rectangular-lane-cut value="false"/>
        <walkingareas value="false"/>
    </processing>

</configuration>
-->

<net version="0.27" xmlns:xsi="http://www.w3.org/2001/XMLSchema-instance" xsi:noNamespaceSchemaLocation="http://sumo.dlr.de/xsd/net_file.xsd">

    <location netOffset="20.00,20.00" convBoundary="20.00,20.00,2270.00,2270.00" origBoundary="0.00,0.00,2250.00,2250.00" projParameter="!"/>

    <edge id=":0/0_0" function="internal">
        <lane id=":0/0_0_0" index="0" speed="13.90" length="18.55" shape="15.05,26.55 15.77,21.52 17.93,17.93 21.52,15.77 26.55,15.05"/>
    </edge>
    <edge id=":0/0_1" function="internal">
        <lane id=":0/0_1_0" index="0" speed="13.90" length="13.22" shape="18.35,26.55 18.86,22.96 20.40,20.40 22.96,18.86 26.55,18.35"/>
    </edge>
    <edge id=":0/0_2" function="internal">
        <lane id=":0/0_2_0" index="0" speed="13.90" length="2.69" shape="18.35,26.55 19.17,25.31 20.00,24.90 20.25,25.03"/>
    </edge>
    <edge id=":0/0_6" function="internal">
        <lane id=":0/0_6_0" index="0" speed="13.90" length="2.13" shape="20.25,25.03 20.82,25.31 21.65,26.55"/>
    </edge>
    <edge id=":0/0_3" function="internal">
        <lane id=":0/0_3_0" index="0" speed="13.90" length="2.58" shape="26.55,24.95 25.85,25.05 25.35,25.35 25.05,25.85 24.95,26.55"/>
    </edge>
    <edge id=":0/0_4" function="internal">
        <lane id=":0/0_4_0" index="0" speed="13.90" length="7.90" shape="26.55,21.65 24.41,21.96 22.87,22.87 21.96,24.41 21.65,26.55"/>
    </edge>
    <edge id=":0/0_5" function="internal">
        <lane id=":0/0_5_0" index="0" speed="13.90" length="2.20" shape="26.55,21.65 25.31,20.83 24.99,20.19"/>
    </edge>
    <edge id=":0/0_7" function="internal">
        <lane id=":0/0_7_0" index="0" speed="13.90" length="2.62" shape="24.99,20.19 24.90,20.00 25.31,19.18 26.55,18.35"/>
    </edge>
    <edge id=":0/1_0" function="internal">
        <lane id=":0/1_0_0" index="0" speed="13.90" length="16.10" shape="15.05,478.05 15.05,461.95"/>
        <lane id=":0/1_0_1" index="1" speed="13.90" length="16.10" shape="18.35,478.05 18.35,461.95"/>
    </edge>
    <edge id=":0/1_2" function="internal">
        <lane id=":0/1_2_0" index="0" speed="13.90" length="6.41" shape="18.35,478.05 18.96,473.81 20.05,471.98"/>
    </edge>
    <edge id=":0/1_3" function="internal">
        <lane id=":0/1_3_0" index="0" speed="13.90" length="2.41" shape="18.35,478.05 19.17,476.81 20.00,476.40"/>
    </edge>
    <edge id=":0/1_11" function="internal">
        <lane id=":0/1_11_0" index="0" speed="13.90" length="9.23" shape="20.05,471.98 20.77,470.77 23.81,468.96 28.05,468.35"/>
    </edge>
    <edge id=":0/1_12" function="internal">
        <lane id=":0/1_12_0" index="0" speed="13.90" length="2.41" shape="20.00,476.40 20.82,476.81 21.65,478.05"/>
    </edge>
    <edge id=":0/1_4" function="internal">
        <lane id=":0/1_4_0" index="0" speed="13.90" length="5.00" shape="28.05,474.95 26.69,475.14 25.73,475.72 25.14,476.69 24.95,478.05"/>
    </edge>
    <edge id=":0/1_5" function="internal">
        <lane id=":0/1_5_0" index="0" speed="13.90" length="15.64" shape="28.05,471.65 23.81,471.04 20.78,469.22 18.96,466.19 18.35,461.95"/>
    </edge>
    <edge id=":0/1_6" function="internal">
        <lane id=":0/1_6_0" index="0" speed="13.90" length="4.82" shape="28.05,471.65 26.81,470.82 26.40,470.00 26.81,469.18 28.05,468.35"/>
    </edge>
    <edge id=":0/1_7" function="internal">
        <lane id=":0/1_7_0" index="0" speed="13.90" length="5.00" shape="24.95,461.95 25.14,463.31 25.72,464.27 26.69,464.86 28.05,465.05"/>
    </edge>
    <edge id=":0/1_8" function="internal">
        <lane id=":0/1_8_0" index="0" speed="13.90" length="16.10" shape="24.95,461.95 24.95,478.05"/>
        <lane id=":0/1_8_1" index="1" speed="13.90" length="16.10" shape="21.65,461.95 21.65,478.05"/>
    </edge>
    <edge id=":0/1_10" function="internal">
        <lane id=":0/1_10_0" index="0" speed="13.90" length="2.41" shape="21.65,461.95 20.83,463.19 20.00,463.60"/>
    </edge>
    <edge id=":0/1_13" function="internal">
        <lane id=":0/1_13_0" index="0" speed="13.90" length="2.41" shape="20.00,463.60 19.18,463.19 18.35,461.95"/>
    </edge>
    <edge id=":0/2_0" function="internal">
        <lane id=":0/2_0_0" index="0" speed="13.90" length="16.10" shape="15.05,928.05 15.05,911.95"/>
        <lane id=":0/2_0_1" index="1" speed="13.90" length="16.10" shape="18.35,928.05 18.35,911.95"/>
    </edge>
    <edge id=":0/2_2" function="internal">
        <lane id=":0/2_2_0" index="0" speed="13.90" length="6.41" shape="18.35,928.05 18.96,923.81 20.05,921.98"/>
    </edge>
    <edge id=":0/2_3" function="internal">
        <lane id=":0/2_3_0" index="0" speed="13.90" length="2.41" shape="18.35,928.05 19.17,926.81 20.00,926.40"/>
    </edge>
    <edge id=":0/2_11" function="internal">
        <lane id=":0/2_11_0" index="0" speed="13.90" length="9.23" shape="20.05,921.98 20.78,920.77 23.81,918.96 28.05,918.35"/>
    </edge>
    <edge id=":0/2_12" function="internal">
        <lane id=":0/2_12_0" index="0" speed="13.90" length="2.41" shape="20.00,926.40 20.82,926.81 21.65,928.05"/>
    </edge>
    <edge id=":0/2_4" function="internal">
        <lane id=":0/2_4_0" index="0" speed="13.90" length="5.00" shape="28.05,924.95 26.69,925.14 25.73,925.73 25.14,926.69 24.95,928.05"/>
    </edge>
    <edge id=":0/2_5" function="internal">
        <lane id=":0/2_5_0" index="0" speed="13.90" length="15.64" shape="28.05,921.65 23.81,921.04 20.77,919.22 18.96,916.19 18.35,911.95"/>
    </edge>
    <edge id=":0/2_6" function="internal">
        <lane id=":0/2_6_0" index="0" speed="13.90" length="4.82" shape="28.05,921.65 26.81,920.83 26.40,920.00 26.81,919.17 28.05,918.35"/>
    </edge>
    <edge id=":0/2_7" function="internal">
        <lane id=":0/2_7_0" index="0" speed="13.90" length="5.00" shape="24.95,911.95 25.14,913.31 25.73,914.27 26.69,914.86 28.05,915.05"/>
    </edge>
    <edge id=":0/2_8" function="internal">
        <lane id=":0/2_8_0" index="0" speed="13.90" length="16.10" shape="24.95,911.95 24.95,928.05"/>
        <lane id=":0/2_8_1" index="1" speed="13.90" length="16.10" shape="21.65,911.95 21.65,928.05"/>
    </edge>
    <edge id=":0/2_10" function="internal">
        <lane id=":0/2_10_0" index="0" speed="13.90" length="2.41" shape="21.65,911.95 20.83,913.19 20.00,913.60"/>
    </edge>
    <edge id=":0/2_13" function="internal">
        <lane id=":0/2_13_0" index="0" speed="13.90" length="2.41" shape="20.00,913.60 19.18,913.19 18.35,911.95"/>
    </edge>
    <edge id=":0/3_0" function="internal">
        <lane id=":0/3_0_0" index="0" speed="13.90" length="16.10" shape="15.05,1378.05 15.05,1361.95"/>
        <lane id=":0/3_0_1" index="1" speed="13.90" length="16.10" shape="18.35,1378.05 18.35,1361.95"/>
    </edge>
    <edge id=":0/3_2" function="internal">
        <lane id=":0/3_2_0" index="0" speed="13.90" length="6.41" shape="18.35,1378.05 18.96,1373.81 20.05,1371.98"/>
    </edge>
    <edge id=":0/3_3" function="internal">
        <lane id=":0/3_3_0" index="0" speed="13.90" length="2.41" shape="18.35,1378.05 19.17,1376.81 20.00,1376.40"/>
    </edge>
    <edge id=":0/3_11" function="internal">
        <lane id=":0/3_11_0" index="0" speed="13.90" length="9.23" shape="20.05,1371.98 20.77,1370.78 23.81,1368.96 28.05,1368.35"/>
    </edge>
    <edge id=":0/3_12" function="internal">
        <lane id=":0/3_12_0" index="0" speed="13.90" length="2.41" shape="20.00,1376.40 20.82,1376.81 21.65,1378.05"/>
    </edge>
    <edge id=":0/3_4" function="internal">
        <lane id=":0/3_4_0" index="0" speed="13.90" length="5.00" shape="28.05,1374.95 26.69,1375.14 25.73,1375.73 25.14,1376.69 24.95,1378.05"/>
    </edge>
    <edge id=":0/3_5" function="internal">
        <lane id=":0/3_5_0" index="0" speed="13.90" length="15.64" shape="28.05,1371.65 23.81,1371.04 20.78,1369.23 18.96,1366.19 18.35,1361.95"/>
    </edge>
    <edge id=":0/3_6" function="internal">
        <lane id=":0/3_6_0" index="0" speed="13.90" length="4.82" shape="28.05,1371.65 26.81,1370.82 26.40,1370.00 26.81,1369.17 28.05,1368.35"/>
    </edge>
    <edge id=":0/3_7" function="internal">
        <lane id=":0/3_7_0" index="0" speed="13.90" length="5.00" shape="24.95,1361.95 25.14,1363.31 25.72,1364.28 26.69,1364.86 28.05,1365.05"/>
    </edge>
    <edge id=":0/3_8" function="internal">
        <lane id=":0/3_8_0" index="0" speed="13.90" length="16.10" shape="24.95,1361.95 24.95,1378.05"/>
        <lane id=":0/3_8_1" index="1" speed="13.90" length="16.10" shape="21.65,1361.95 21.65,1378.05"/>
    </edge>
    <edge id=":0/3_10" function="internal">
        <lane id=":0/3_10_0" index="0" speed="13.90" length="2.41" shape="21.65,1361.95 20.83,1363.19 20.00,1363.60"/>
    </edge>
    <edge id=":0/3_13" function="internal">
        <lane id=":0/3_13_0" index="0" speed="13.90" length="2.41" shape="20.00,1363.60 19.18,1363.19 18.35,1361.95"/>
    </edge>
    <edge id=":0/4_0" function="internal">
        <lane id=":0/4_0_0" index="0" speed="13.90" length="16.10" shape="15.05,1828.05 15.05,1811.95"/>
        <lane id=":0/4_0_1" index="1" speed="13.90" length="16.10" shape="18.35,1828.05 18.35,1811.95"/>
    </edge>
    <edge id=":0/4_2" function="internal">
        <lane id=":0/4_2_0" index="0" speed="13.90" length="6.41" shape="18.35,1828.05 18.96,1823.81 20.05,1821.98"/>
    </edge>
    <edge id=":0/4_3" function="internal">
        <lane id=":0/4_3_0" index="0" speed="13.90" length="2.41" shape="18.35,1828.05 19.17,1826.81 20.00,1826.40"/>
    </edge>
    <edge id=":0/4_11" function="internal">
        <lane id=":0/4_11_0" index="0" speed="13.90" length="9.23" shape="20.05,1821.98 20.77,1820.78 23.81,1818.96 28.05,1818.35"/>
    </edge>
    <edge id=":0/4_12" function="internal">
        <lane id=":0/4_12_0" index="0" speed="13.90" length="2.41" shape="20.00,1826.40 20.82,1826.81 21.65,1828.05"/>
    </edge>
    <edge id=":0/4_4" function="internal">
        <lane id=":0/4_4_0" index="0" speed="13.90" length="5.00" shape="28.05,1824.95 26.69,1825.14 25.72,1825.73 25.14,1826.69 24.95,1828.05"/>
    </edge>
    <edge id=":0/4_5" function="internal">
        <lane id=":0/4_5_0" index="0" speed="13.90" length="15.64" shape="28.05,1821.65 23.81,1821.04 20.78,1819.23 18.96,1816.19 18.35,1811.95"/>
    </edge>
    <edge id=":0/4_6" function="internal">
        <lane id=":0/4_6_0" index="0" speed="13.90" length="4.82" shape="28.05,1821.65 26.81,1820.83 26.40,1820.00 26.81,1819.17 28.05,1818.35"/>
    </edge>
    <edge id=":0/4_7" function="internal">
        <lane id=":0/4_7_0" index="0" speed="13.90" length="5.00" shape="24.95,1811.95 25.14,1813.31 25.72,1814.28 26.69,1814.86 28.05,1815.05"/>
    </edge>
    <edge id=":0/4_8" function="internal">
        <lane id=":0/4_8_0" index="0" speed="13.90" length="16.10" shape="24.95,1811.95 24.95,1828.05"/>
        <lane id=":0/4_8_1" index="1" speed="13.90" length="16.10" shape="21.65,1811.95 21.65,1828.05"/>
    </edge>
    <edge id=":0/4_10" function="internal">
        <lane id=":0/4_10_0" index="0" speed="13.90" length="2.41" shape="21.65,1811.95 20.83,1813.19 20.00,1813.60"/>
    </edge>
    <edge id=":0/4_13" function="internal">
        <lane id=":0/4_13_0" index="0" speed="13.90" length="2.41" shape="20.00,1813.60 19.18,1813.19 18.35,1811.95"/>
    </edge>
    <edge id=":0/5_0" function="internal">
        <lane id=":0/5_0_0" index="0" speed="13.90" length="18.55" shape="26.55,2274.95 21.52,2274.23 17.93,2272.07 15.77,2268.48 15.05,2263.45"/>
    </edge>
    <edge id=":0/5_1" function="internal">
        <lane id=":0/5_1_0" index="0" speed="13.90" length="13.22" shape="26.55,2271.65 22.96,2271.14 20.40,2269.60 18.86,2267.04 18.35,2263.45"/>
    </edge>
    <edge id=":0/5_2" function="internal">
        <lane id=":0/5_2_0" index="0" speed="13.90" length="2.69" shape="26.55,2271.65 25.31,2270.83 24.90,2270.00 25.03,2269.75"/>
    </edge>
    <edge id=":0/5_6" function="internal">
        <lane id=":0/5_6_0" index="0" speed="13.90" length="2.13" shape="25.03,2269.75 25.31,2269.17 26.55,2268.35"/>
    </edge>
    <edge id=":0/5_3" function="internal">
        <lane id=":0/5_3_0" index="0" speed="13.90" length="2.58" shape="24.95,2263.45 25.05,2264.15 25.35,2264.65 25.85,2264.95 26.55,2265.05"/>
    </edge>
    <edge id=":0/5_4" function="internal">
        <lane id=":0/5_4_0" index="0" speed="13.90" length="7.90" shape="21.65,2263.45 21.96,2265.59 22.87,2267.12 24.41,2268.04 26.55,2268.35"/>
    </edge>
    <edge id=":0/5_5" function="internal">
        <lane id=":0/5_5_0" index="0" speed="13.90" length="2.20" shape="21.65,2263.45 20.83,2264.69 20.19,2265.01"/>
    </edge>
    <edge id=":0/5_7" function="internal">
        <lane id=":0/5_7_0" index="0" speed="13.90" length="2.62" shape="20.19,2265.01 20.00,2265.10 19.18,2264.69 18.35,2263.45"/>
    </edge>
    <edge id=":1/0_0" function="internal">
        <lane id=":1/0_0_0" index="0" speed="13.90" length="5.00" shape="465.05,28.05 464.86,26.69 464.28,25.72 463.31,25.14 461.95,24.95"/>
    </edge>
    <edge id=":1/0_1" function="internal">
        <lane id=":1/0_1_0" index="0" speed="13.90" length="15.64" shape="468.35,28.05 468.96,23.81 470.78,20.78 473.81,18.96 478.05,18.35"/>
    </edge>
    <edge id=":1/0_2" function="internal">
        <lane id=":1/0_2_0" index="0" speed="13.90" length="4.82" shape="468.35,28.05 469.18,26.81 470.00,26.40 470.82,26.81 471.65,28.05"/>
    </edge>
    <edge id=":1/0_3" function="internal">
        <lane id=":1/0_3_0" index="0" speed="13.90" length="5.00" shape="478.05,24.95 476.69,25.14 475.73,25.72 475.14,26.69 474.95,28.05"/>
    </edge>
    <edge id=":1/0_4" function="internal">
        <lane id=":1/0_4_0" index="0" speed="13.90" length="16.10" shape="478.05,24.95 461.95,24.95"/>
        <lane id=":1/0_4_1" index="1" speed="13.90" length="16.10" shape="478.05,21.65 461.95,21.65"/>
    </edge>
    <edge id=":1/0_6" function="internal">
        <lane id=":1/0_6_0" index="0" speed="13.90" length="2.41" shape="478.05,21.65 476.81,20.83 476.40,20.00"/>
    </edge>
    <edge id=":1/0_11" function="internal">
        <lane id=":1/0_11_0" index="0" speed="13.90" length="2.41" shape="476.40,20.00 476.81,19.18 478.05,18.35"/>
    </edge>
    <edge id=":1/0_7" function="internal">
        <lane id=":1/0_7_0" index="0" speed="13.90" length="16.10" shape="461.95,15.05 478.05,15.05"/>
        <lane id=":1/0_7_1" index="1" speed="13.90" length="16.10" shape="461.95,18.35 478.05,18.35"/>
    </edge>
    <edge id=":1/0_9" function="internal">
        <lane id=":1/0_9_0" index="0" speed="13.90" length="6.41" shape="461.95,18.35 466.19,18.96 468.02,20.05"/>
    </edge>
    <edge id=":1/0_10" function="internal">
        <lane id=":1/0_10_0" index="0" speed="13.90" length="2.41" shape="461.95,18.35 463.19,19.17 463.60,20.00"/>
    </edge>
    <edge id=":1/0_12" function="internal">
        <lane id=":1/0_12_0" index="0" speed="13.90" length="9.23" shape="468.02,20.05 469.23,20.77 471.04,23.81 471.65,28.05"/>
    </edge>
    <edge id=":1/0_13" function="internal">
        <lane id=":1/0_13_0" index="0" speed="13.90" length="2.41" shape="463.60,20.00 463.19,20.82 461.95,21.65"/>
    </edge>
    <edge id=":1/1_0" function="internal">
        <lane id=":1/1_0_0" index="0" speed="13.90" length="5.00" shape="465.05,478.05 464.86,476.69 464.28,475.73 463.31,475.14 461.95,474.95"/>
    </edge>
    <edge id=":1/1_1" function="internal">
        <lane id=":1/1_1_0" index="0" speed="13.90" length="16.10" shape="465.05,478.05 465.05,461.95"/>
        <lane id=":1/1_1_1" index="1" speed="13.90" length="16.10" shape="468.35,478.05 468.35,461.95"/>
    </edge>
    <edge id=":1/1_3" function="internal">
        <lane id=":1/1_3_0" index="0" speed="13.90" length="6.41" shape="468.35,478.05 468.96,473.81 470.05,471.98"/>
    </edge>
    <edge id=":1/1_4" function="internal">
        <lane id=":1/1_4_0" index="0" speed="13.90" length="2.41" shape="468.35,478.05 469.18,476.81 470.00,476.40"/>
    </edge>
    <edge id=":1/1_20" function="internal">
        <lane id=":1/1_20_0" index="0" speed="13.90" length="9.23" shape="470.05,471.98 470.78,470.77 473.81,468.96 478.05,468.35"/>
    </edge>
    <edge id=":1/1_21" function="internal">
        <lane id=":1/1_21_0" index="0" speed="13.90" length="2.41" shape="470.00,476.40 470.82,476.81 471.65,478.05"/>
    </edge>
    <edge id=":1/1_5" function="internal">
        <lane id=":1/1_5_0" index="0" speed="13.90" length="5.00" shape="478.05,474.95 476.69,475.14 475.73,475.72 475.14,476.69 474.95,478.05"/>
    </edge>
    <edge id=":1/1_6" function="internal">
        <lane id=":1/1_6_0" index="0" speed="13.90" length="16.10" shape="478.05,474.95 461.95,474.95"/>
        <lane id=":1/1_6_1" index="1" speed="13.90" length="16.10" shape="478.05,471.65 461.95,471.65"/>
    </edge>
    <edge id=":1/1_8" function="internal">
        <lane id=":1/1_8_0" index="0" speed="13.90" length="15.64" shape="478.05,471.65 473.81,471.04 470.77,469.22 468.96,466.19 468.35,461.95"/>
    </edge>
    <edge id=":1/1_9" function="internal">
        <lane id=":1/1_9_0" index="0" speed="13.90" length="4.82" shape="478.05,471.65 476.81,470.82 476.40,470.00 476.81,469.18 478.05,468.35"/>
    </edge>
    <edge id=":1/1_10" function="internal">
        <lane id=":1/1_10_0" index="0" speed="13.90" length="5.00" shape="474.95,461.95 475.14,463.31 475.72,464.27 476.69,464.86 478.05,465.05"/>
    </edge>
    <edge id=":1/1_11" function="internal">
        <lane id=":1/1_11_0" index="0" speed="13.90" length="16.10" shape="474.95,461.95 474.95,478.05"/>
        <lane id=":1/1_11_1" index="1" speed="13.90" length="16.10" shape="471.65,461.95 471.65,478.05"/>
    </edge>
    <edge id=":1/1_13" function="internal">
        <lane id=":1/1_13_0" index="0" speed="13.90" length="6.41" shape="471.65,461.95 471.04,466.19 469.95,468.02"/>
    </edge>
    <edge id=":1/1_14" function="internal">
        <lane id=":1/1_14_0" index="0" speed="13.90" length="2.41" shape="471.65,461.95 470.82,463.19 470.00,463.60"/>
    </edge>
    <edge id=":1/1_22" function="internal">
        <lane id=":1/1_22_0" index="0" speed="13.90" length="9.23" shape="469.95,468.02 469.22,469.23 466.19,471.04 461.95,471.65"/>
    </edge>
    <edge id=":1/1_23" function="internal">
        <lane id=":1/1_23_0" index="0" speed="13.90" length="2.41" shape="470.00,463.60 469.18,463.19 468.35,461.95"/>
    </edge>
    <edge id=":1/1_15" function="internal">
        <lane id=":1/1_15_0" index="0" speed="13.90" length="5.00" shape="461.95,465.05 463.31,464.86 464.27,464.28 464.86,463.31 465.05,461.95"/>
    </edge>
    <edge id=":1/1_16" function="internal">
        <lane id=":1/1_16_0" index="0" speed="13.90" length="16.10" shape="461.95,465.05 478.05,465.05"/>
        <lane id=":1/1_16_1" index="1" speed="13.90" length="16.10" shape="461.95,468.35 478.05,468.35"/>
    </edge>
    <edge id=":1/1_18" function="internal">
        <lane id=":1/1_18_0" index="0" speed="13.90" length="15.64" shape="461.95,468.35 466.19,468.96 469.23,470.78 471.04,473.81 471.65,478.05"/>
    </edge>
    <edge id=":1/1_19" function="internal">
        <lane id=":1/1_19_0" index="0" speed="13.90" length="4.82" shape="461.95,468.35 463.19,469.18 463.60,470.00 463.19,470.82 461.95,471.65"/>
    </edge>
    <edge id=":1/2_0" function="internal">
        <lane id=":1/2_0_0" index="0" speed="13.90" length="5.00" shape="465.05,928.05 464.86,926.69 464.28,925.73 463.31,925.14 461.95,924.95"/>
    </edge>
    <edge id=":1/2_1" function="internal">
        <lane id=":1/2_1_0" index="0" speed="13.90" length="16.10" shape="465.05,928.05 465.05,911.95"/>
        <lane id=":1/2_1_1" index="1" speed="13.90" length="16.10" shape="468.35,928.05 468.35,911.95"/>
    </edge>
    <edge id=":1/2_3" function="internal">
        <lane id=":1/2_3_0" index="0" speed="13.90" length="6.41" shape="468.35,928.05 468.96,923.81 470.05,921.98"/>
    </edge>
    <edge id=":1/2_4" function="internal">
        <lane id=":1/2_4_0" index="0" speed="13.90" length="2.41" shape="468.35,928.05 469.18,926.81 470.00,926.40"/>
    </edge>
    <edge id=":1/2_20" function="internal">
        <lane id=":1/2_20_0" index="0" speed="13.90" length="9.23" shape="470.05,921.98 470.78,920.77 473.81,918.96 478.05,918.35"/>
    </edge>
    <edge id=":1/2_21" function="internal">
        <lane id=":1/2_21_0" index="0" speed="13.90" length="2.41" shape="470.00,926.40 470.82,926.81 471.65,928.05"/>
    </edge>
    <edge id=":1/2_5" function="internal">
        <lane id=":1/2_5_0" index="0" speed="13.90" length="5.00" shape="478.05,924.95 476.69,925.14 475.73,925.73 475.14,926.69 474.95,928.05"/>
    </edge>
    <edge id=":1/2_6" function="internal">
        <lane id=":1/2_6_0" index="0" speed="13.90" length="16.10" shape="478.05,924.95 461.95,924.95"/>
        <lane id=":1/2_6_1" index="1" speed="13.90" length="16.10" shape="478.05,921.65 461.95,921.65"/>
    </edge>
    <edge id=":1/2_8" function="internal">
        <lane id=":1/2_8_0" index="0" speed="13.90" length="15.64" shape="478.05,921.65 473.81,921.04 470.77,919.22 468.96,916.19 468.35,911.95"/>
    </edge>
    <edge id=":1/2_9" function="internal">
        <lane id=":1/2_9_0" index="0" speed="13.90" length="4.82" shape="478.05,921.65 476.81,920.83 476.40,920.00 476.81,919.17 478.05,918.35"/>
    </edge>
    <edge id=":1/2_10" function="internal">
        <lane id=":1/2_10_0" index="0" speed="13.90" length="5.00" shape="474.95,911.95 475.14,913.31 475.72,914.27 476.69,914.86 478.05,915.05"/>
    </edge>
    <edge id=":1/2_11" function="internal">
        <lane id=":1/2_11_0" index="0" speed="13.90" length="16.10" shape="474.95,911.95 474.95,928.05"/>
        <lane id=":1/2_11_1" index="1" speed="13.90" length="16.10" shape="471.65,911.95 471.65,928.05"/>
    </edge>
    <edge id=":1/2_13" function="internal">
        <lane id=":1/2_13_0" index="0" speed="13.90" length="6.41" shape="471.65,911.95 471.04,916.19 469.95,918.02"/>
    </edge>
    <edge id=":1/2_14" function="internal">
        <lane id=":1/2_14_0" index="0" speed="13.90" length="2.41" shape="471.65,911.95 470.82,913.19 470.00,913.60"/>
    </edge>
    <edge id=":1/2_22" function="internal">
        <lane id=":1/2_22_0" index="0" speed="13.90" length="9.23" shape="469.95,918.02 469.22,919.23 466.19,921.04 461.95,921.65"/>
    </edge>
    <edge id=":1/2_23" function="internal">
        <lane id=":1/2_23_0" index="0" speed="13.90" length="2.41" shape="470.00,913.60 469.18,913.19 468.35,911.95"/>
    </edge>
    <edge id=":1/2_15" function="internal">
        <lane id=":1/2_15_0" index="0" speed="13.90" length="5.00" shape="461.95,915.05 463.31,914.86 464.27,914.27 464.86,913.31 465.05,911.95"/>
    </edge>
    <edge id=":1/2_16" function="internal">
        <lane id=":1/2_16_0" index="0" speed="13.90" length="16.10" shape="461.95,915.05 478.05,915.05"/>
        <lane id=":1/2_16_1" index="1" speed="13.90" length="16.10" shape="461.95,918.35 478.05,918.35"/>
    </edge>
    <edge id=":1/2_18" function="internal">
        <lane id=":1/2_18_0" index="0" speed="13.90" length="15.64" shape="461.95,918.35 466.19,918.96 469.23,920.78 471.04,923.81 471.65,928.05"/>
    </edge>
    <edge id=":1/2_19" function="internal">
        <lane id=":1/2_19_0" index="0" speed="13.90" length="4.82" shape="461.95,918.35 463.19,919.17 463.60,920.00 463.19,920.83 461.95,921.65"/>
    </edge>
    <edge id=":1/3_0" function="internal">
        <lane id=":1/3_0_0" index="0" speed="13.90" length="5.00" shape="465.05,1378.05 464.86,1376.69 464.28,1375.72 463.31,1375.14 461.95,1374.95"/>
    </edge>
    <edge id=":1/3_1" function="internal">
        <lane id=":1/3_1_0" index="0" speed="13.90" length="16.10" shape="465.05,1378.05 465.05,1361.95"/>
        <lane id=":1/3_1_1" index="1" speed="13.90" length="16.10" shape="468.35,1378.05 468.35,1361.95"/>
    </edge>
    <edge id=":1/3_3" function="internal">
        <lane id=":1/3_3_0" index="0" speed="13.90" length="6.41" shape="468.35,1378.05 468.96,1373.81 470.05,1371.98"/>
    </edge>
    <edge id=":1/3_4" function="internal">
        <lane id=":1/3_4_0" index="0" speed="13.90" length="2.41" shape="468.35,1378.05 469.18,1376.81 470.00,1376.40"/>
    </edge>
    <edge id=":1/3_20" function="internal">
        <lane id=":1/3_20_0" index="0" speed="13.90" length="9.23" shape="470.05,1371.98 470.78,1370.78 473.81,1368.96 478.05,1368.35"/>
    </edge>
    <edge id=":1/3_21" function="internal">
        <lane id=":1/3_21_0" index="0" speed="13.90" length="2.41" shape="470.00,1376.40 470.82,1376.81 471.65,1378.05"/>
    </edge>
    <edge id=":1/3_5" function="internal">
        <lane id=":1/3_5_0" index="0" speed="13.90" length="5.00" shape="478.05,1374.95 476.69,1375.14 475.73,1375.73 475.14,1376.69 474.95,1378.05"/>
    </edge>
    <edge id=":1/3_6" function="internal">
        <lane id=":1/3_6_0" index="0" speed="13.90" length="16.10" shape="478.05,1374.95 461.95,1374.95"/>
        <lane id=":1/3_6_1" index="1" speed="13.90" length="16.10" shape="478.05,1371.65 461.95,1371.65"/>
    </edge>
    <edge id=":1/3_8" function="internal">
        <lane id=":1/3_8_0" index="0" speed="13.90" length="15.64" shape="478.05,1371.65 473.81,1371.04 470.77,1369.23 468.96,1366.19 468.35,1361.95"/>
    </edge>
    <edge id=":1/3_9" function="internal">
        <lane id=":1/3_9_0" index="0" speed="13.90" length="4.82" shape="478.05,1371.65 476.81,1370.82 476.40,1370.00 476.81,1369.17 478.05,1368.35"/>
    </edge>
    <edge id=":1/3_10" function="internal">
        <lane id=":1/3_10_0" index="0" speed="13.90" length="5.00" shape="474.95,1361.95 475.14,1363.31 475.72,1364.28 476.69,1364.86 478.05,1365.05"/>
    </edge>
    <edge id=":1/3_11" function="internal">
        <lane id=":1/3_11_0" index="0" speed="13.90" length="16.10" shape="474.95,1361.95 474.95,1378.05"/>
        <lane id=":1/3_11_1" index="1" speed="13.90" length="16.10" shape="471.65,1361.95 471.65,1378.05"/>
    </edge>
    <edge id=":1/3_13" function="internal">
        <lane id=":1/3_13_0" index="0" speed="13.90" length="6.41" shape="471.65,1361.95 471.04,1366.19 469.95,1368.02"/>
    </edge>
    <edge id=":1/3_14" function="internal">
        <lane id=":1/3_14_0" index="0" speed="13.90" length="2.41" shape="471.65,1361.95 470.82,1363.19 470.00,1363.60"/>
    </edge>
    <edge id=":1/3_22" function="internal">
        <lane id=":1/3_22_0" index="0" speed="13.90" length="9.23" shape="469.95,1368.02 469.22,1369.22 466.19,1371.04 461.95,1371.65"/>
    </edge>
    <edge id=":1/3_23" function="internal">
        <lane id=":1/3_23_0" index="0" speed="13.90" length="2.41" shape="470.00,1363.60 469.18,1363.19 468.35,1361.95"/>
    </edge>
    <edge id=":1/3_15" function="internal">
        <lane id=":1/3_15_0" index="0" speed="13.90" length="5.00" shape="461.95,1365.05 463.31,1364.86 464.27,1364.27 464.86,1363.31 465.05,1361.95"/>
    </edge>
    <edge id=":1/3_16" function="internal">
        <lane id=":1/3_16_0" index="0" speed="13.90" length="16.10" shape="461.95,1365.05 478.05,1365.05"/>
        <lane id=":1/3_16_1" index="1" speed="13.90" length="16.10" shape="461.95,1368.35 478.05,1368.35"/>
    </edge>
    <edge id=":1/3_18" function="internal">
        <lane id=":1/3_18_0" index="0" speed="13.90" length="15.64" shape="461.95,1368.35 466.19,1368.96 469.23,1370.77 471.04,1373.81 471.65,1378.05"/>
    </edge>
    <edge id=":1/3_19" function="internal">
        <lane id=":1/3_19_0" index="0" speed="13.90" length="4.82" shape="461.95,1368.35 463.19,1369.18 463.60,1370.00 463.19,1370.83 461.95,1371.65"/>
    </edge>
    <edge id=":1/4_0" function="internal">
        <lane id=":1/4_0_0" index="0" speed="13.90" length="5.00" shape="465.05,1828.05 464.86,1826.69 464.28,1825.72 463.31,1825.14 461.95,1824.95"/>
    </edge>
    <edge id=":1/4_1" function="internal">
        <lane id=":1/4_1_0" index="0" speed="13.90" length="16.10" shape="465.05,1828.05 465.05,1811.95"/>
        <lane id=":1/4_1_1" index="1" speed="13.90" length="16.10" shape="468.35,1828.05 468.35,1811.95"/>
    </edge>
    <edge id=":1/4_3" function="internal">
        <lane id=":1/4_3_0" index="0" speed="13.90" length="6.41" shape="468.35,1828.05 468.96,1823.81 470.05,1821.98"/>
    </edge>
    <edge id=":1/4_4" function="internal">
        <lane id=":1/4_4_0" index="0" speed="13.90" length="2.41" shape="468.35,1828.05 469.18,1826.81 470.00,1826.40"/>
    </edge>
    <edge id=":1/4_20" function="internal">
        <lane id=":1/4_20_0" index="0" speed="13.90" length="9.23" shape="470.05,1821.98 470.78,1820.78 473.81,1818.96 478.05,1818.35"/>
    </edge>
    <edge id=":1/4_21" function="internal">
        <lane id=":1/4_21_0" index="0" speed="13.90" length="2.41" shape="470.00,1826.40 470.82,1826.81 471.65,1828.05"/>
    </edge>
    <edge id=":1/4_5" function="internal">
        <lane id=":1/4_5_0" index="0" speed="13.90" length="5.00" shape="478.05,1824.95 476.69,1825.14 475.73,1825.73 475.14,1826.69 474.95,1828.05"/>
    </edge>
    <edge id=":1/4_6" function="internal">
        <lane id=":1/4_6_0" index="0" speed="13.90" length="16.10" shape="478.05,1824.95 461.95,1824.95"/>
        <lane id=":1/4_6_1" index="1" speed="13.90" length="16.10" shape="478.05,1821.65 461.95,1821.65"/>
    </edge>